MODEL 1
REMARK VINA RESULT:      -5.7      0.000      0.000
REMARK  Name = 445858
REMARK                            x       y       z     vdW  Elec       q    Type
REMARK                         _______ _______ _______ _____ _____    ______ ____
ROOT
ATOM      3  C   LIG    1        0.942  32.313  61.349  0.00  0.00    +0.162 A 
ATOM      4  C   LIG    1        0.738  30.956  61.599  0.00  0.00    +0.158 A 
ATOM      5  C   LIG    1        1.520  30.297  62.548  0.00  0.00    +0.050 A 
ATOM      6  C   LIG    1        2.505  30.995  63.246  0.00  0.00    +0.012 A 
ATOM      7  C   LIG    1        2.709  32.352  62.996  0.00  0.00    -0.021 A 
ATOM     16  C   LIG    1        1.928  33.011  62.047  0.00  0.00    +0.057 A 
ENDROOT
BRANCH   3   1
ATOM      1  O   LIG    1        0.186  32.968  60.423  0.00  0.00    -0.491 OA
ATOM      2  C   LIG    1       -0.507  34.135  60.861  0.00  0.00    +0.277 C 
ENDBRANCH   3   1
BRANCH   7   8
ATOM      8  C   LIG    1        3.735  33.079  63.725  0.00  0.00    +0.015 C 
ATOM      9  C   LIG    1        3.713  33.347  65.050  0.00  0.00    +0.092 C 
BRANCH   9  10
ATOM     10  C   LIG    1        4.825  34.090  65.674  0.00  0.00    +0.330 C 
ATOM     11  O   LIG    1        5.602  33.662  66.512  0.00  0.00    -0.246 OA
BRANCH  10  12
ATOM     12  O   LIG    1        4.852  35.343  65.163  0.00  0.00    -0.478 OA
ATOM     13  H   LIG    1        4.601  36.017  65.830  0.00  0.00    +0.295 HD
ENDBRANCH  10  12
ENDBRANCH   9  10
ENDBRANCH   7   8
BRANCH   4  14
ATOM     14  O   LIG    1       -0.220  30.263  60.922  0.00  0.00    -0.503 OA
ATOM     15  H   LIG    1        0.203  29.543  60.423  0.00  0.00    +0.292 HD
ENDBRANCH   4  14
TORSDOF 5
ENDMDL
MODEL 2
REMARK VINA RESULT:      -5.5      1.906      2.399
REMARK  Name = 445858
REMARK                            x       y       z     vdW  Elec       q    Type
REMARK                         _______ _______ _______ _____ _____    ______ ____
ROOT
ATOM      3  C   LIG    1       -1.200  32.270  61.268  0.00  0.00    +0.162 A 
ATOM      4  C   LIG    1       -1.448  30.933  60.956  0.00  0.00    +0.158 A 
ATOM      5  C   LIG    1       -0.500  29.958  61.265  0.00  0.00    +0.050 A 
ATOM      6  C   LIG    1        0.697  30.320  61.885  0.00  0.00    +0.012 A 
ATOM      7  C   LIG    1        0.944  31.656  62.195  0.00  0.00    -0.021 A 
ATOM     16  C   LIG    1       -0.004  32.632  61.888  0.00  0.00    +0.057 A 
ENDROOT
BRANCH   3   1
ATOM      1  O   LIG    1       -2.119  33.232  60.971  0.00  0.00    -0.491 OA
ATOM      2  C   LIG    1       -1.652  34.579  60.917  0.00  0.00    +0.277 C 
ENDBRANCH   3   1
BRANCH   7   8
ATOM      8  C   LIG    1        2.191  32.033  62.842  0.00  0.00    +0.015 C 
ATOM      9  C   LIG    1        2.980  31.205  63.563  0.00  0.00    +0.092 C 
BRANCH   9  10
ATOM     10  C   LIG    1        4.231  31.710  64.163  0.00  0.00    +0.330 C 
ATOM     11  O   LIG    1        4.781  31.278  65.163  0.00  0.00    -0.246 OA
BRANCH  10  12
ATOM     12  O   LIG    1        4.683  32.745  63.417  0.00  0.00    -0.478 OA
ATOM     13  H   LIG    1        4.015  33.459  63.336  0.00  0.00    +0.295 HD
ENDBRANCH  10  12
ENDBRANCH   9  10
ENDBRANCH   7   8
BRANCH   4  14
ATOM     14  O   LIG    1       -2.612  30.568  60.350  0.00  0.00    -0.503 OA
ATOM     15  H   LIG    1       -2.641  29.598  60.279  0.00  0.00    +0.292 HD
ENDBRANCH   4  14
TORSDOF 5
ENDMDL
MODEL 3
REMARK VINA RESULT:      -5.3     11.099     14.466
REMARK  Name = 445858
REMARK                            x       y       z     vdW  Elec       q    Type
REMARK                         _______ _______ _______ _____ _____    ______ ____
ROOT
ATOM      3  C   LIG    1       -9.369  32.444  60.244  0.00  0.00    +0.162 A 
ATOM      4  C   LIG    1       -8.210  31.698  60.026  0.00  0.00    +0.158 A 
ATOM      5  C   LIG    1       -8.011  31.064  58.800  0.00  0.00    +0.050 A 
ATOM      6  C   LIG    1       -8.969  31.175  57.792  0.00  0.00    +0.012 A 
ATOM      7  C   LIG    1      -10.127  31.920  58.011  0.00  0.00    -0.021 A 
ATOM     16  C   LIG    1      -10.328  32.555  59.236  0.00  0.00    +0.057 A 
ENDROOT
BRANCH   3   1
ATOM      1  O   LIG    1       -9.576  33.068  61.438  0.00  0.00    -0.491 OA
ATOM      2  C   LIG    1       -9.425  34.486  61.462  0.00  0.00    +0.277 C 
ENDBRANCH   3   1
BRANCH   7   8
ATOM      8  C   LIG    1      -11.125  32.036  56.960  0.00  0.00    +0.015 C 
ATOM      9  C   LIG    1      -11.675  33.193  56.528  0.00  0.00    +0.092 C 
BRANCH   9  10
ATOM     10  C   LIG    1      -12.676  33.178  55.443  0.00  0.00    +0.330 C 
ATOM     11  O   LIG    1      -13.871  32.966  55.562  0.00  0.00    -0.246 OA
BRANCH  10  12
ATOM     12  O   LIG    1      -12.050  33.442  54.272  0.00  0.00    -0.478 OA
ATOM     13  H   LIG    1      -11.241  33.981  54.401  0.00  0.00    +0.295 HD
ENDBRANCH  10  12
ENDBRANCH   9  10
ENDBRANCH   7   8
BRANCH   4  14
ATOM     14  O   LIG    1       -7.268  31.582  61.002  0.00  0.00    -0.503 OA
ATOM     15  H   LIG    1       -7.334  30.697  61.402  0.00  0.00    +0.292 HD
ENDBRANCH   4  14
TORSDOF 5
ENDMDL
MODEL 4
REMARK VINA RESULT:      -5.1      1.025      2.331
REMARK  Name = 445858
REMARK                            x       y       z     vdW  Elec       q    Type
REMARK                         _______ _______ _______ _____ _____    ______ ____
ROOT
ATOM      3  C   LIG    1        0.968  30.619  62.660  0.00  0.00    +0.162 A 
ATOM      4  C   LIG    1        0.470  31.218  61.502  0.00  0.00    +0.158 A 
ATOM      5  C   LIG    1        1.007  32.425  61.056  0.00  0.00    +0.050 A 
ATOM      6  C   LIG    1        2.043  33.033  61.766  0.00  0.00    +0.012 A 
ATOM      7  C   LIG    1        2.540  32.434  62.922  0.00  0.00    -0.021 A 
ATOM     16  C   LIG    1        2.004  31.227  63.370  0.00  0.00    +0.057 A 
ENDROOT
BRANCH   3   1
ATOM      1  O   LIG    1        0.450  29.441  63.107  0.00  0.00    -0.491 OA
ATOM      2  C   LIG    1       -0.445  29.506  64.215  0.00  0.00    +0.277 C 
ENDBRANCH   3   1
BRANCH   7   8
ATOM      8  C   LIG    1        3.620  33.068  63.661  0.00  0.00    +0.015 C 
ATOM      9  C   LIG    1        3.542  33.510  64.936  0.00  0.00    +0.092 C 
BRANCH   9  10
ATOM     10  C   LIG    1        4.717  34.129  65.580  0.00  0.00    +0.330 C 
ATOM     11  O   LIG    1        5.463  33.601  66.389  0.00  0.00    -0.246 OA
BRANCH  10  12
ATOM     12  O   LIG    1        4.844  35.397  65.124  0.00  0.00    -0.478 OA
ATOM     13  H   LIG    1        3.988  35.875  65.125  0.00  0.00    +0.295 HD
ENDBRANCH  10  12
ENDBRANCH   9  10
ENDBRANCH   7   8
BRANCH   4  14
ATOM     14  O   LIG    1       -0.542  30.635  60.801  0.00  0.00    -0.503 OA
ATOM     15  H   LIG    1       -1.092  31.330  60.401  0.00  0.00    +0.292 HD
ENDBRANCH   4  14
TORSDOF 5
ENDMDL
MODEL 5
REMARK VINA RESULT:      -5.1     25.030     27.064
REMARK  Name = 445858
REMARK                            x       y       z     vdW  Elec       q    Type
REMARK                         _______ _______ _______ _____ _____    ______ ____
ROOT
ATOM      3  C   LIG    1       10.444  16.606  42.598  0.00  0.00    +0.162 A 
ATOM      4  C   LIG    1       10.494  16.180  41.270  0.00  0.00    +0.158 A 
ATOM      5  C   LIG    1        9.422  15.474  40.724  0.00  0.00    +0.050 A 
ATOM      6  C   LIG    1        8.301  15.193  41.505  0.00  0.00    +0.012 A 
ATOM      7  C   LIG    1        8.252  15.619  42.832  0.00  0.00    -0.021 A 
ATOM     16  C   LIG    1        9.323  16.325  43.379  0.00  0.00    +0.057 A 
ENDROOT
BRANCH   3   1
ATOM      1  O   LIG    1       11.485  17.295  43.143  0.00  0.00    -0.491 OA
ATOM      2  C   LIG    1       12.402  16.555  43.946  0.00  0.00    +0.277 C 
ENDBRANCH   3   1
BRANCH   7   8
ATOM      8  C   LIG    1        7.082  15.327  43.645  0.00  0.00    +0.015 C 
ATOM      9  C   LIG    1        6.935  15.653  44.949  0.00  0.00    +0.092 C 
BRANCH   9  10
ATOM     10  C   LIG    1        5.690  15.308  45.663  0.00  0.00    +0.330 C 
ATOM     11  O   LIG    1        4.641  14.946  45.157  0.00  0.00    -0.246 OA
BRANCH  10  12
ATOM     12  O   LIG    1        5.896  15.458  46.993  0.00  0.00    -0.478 OA
ATOM     13  H   LIG    1        5.407  16.227  47.356  0.00  0.00    +0.295 HD
ENDBRANCH  10  12
ENDBRANCH   9  10
ENDBRANCH   7   8
BRANCH   4  14
ATOM     14  O   LIG    1       11.584  16.447  40.498  0.00  0.00    -0.503 OA
ATOM     15  H   LIG    1       12.149  17.091  40.960  0.00  0.00    +0.292 HD
ENDBRANCH   4  14
TORSDOF 5
ENDMDL
MODEL 6
REMARK VINA RESULT:      -5.1      1.899      2.984
REMARK  Name = 445858
REMARK                            x       y       z     vdW  Elec       q    Type
REMARK                         _______ _______ _______ _____ _____    ______ ____
ROOT
ATOM      3  C   LIG    1        1.253  30.714  62.705  0.00  0.00    +0.162 A 
ATOM      4  C   LIG    1        1.073  31.765  61.805  0.00  0.00    +0.158 A 
ATOM      5  C   LIG    1        1.946  32.853  61.821  0.00  0.00    +0.050 A 
ATOM      6  C   LIG    1        2.997  32.890  62.737  0.00  0.00    +0.012 A 
ATOM      7  C   LIG    1        3.176  31.840  63.636  0.00  0.00    -0.021 A 
ATOM     16  C   LIG    1        2.304  30.752  63.621  0.00  0.00    +0.057 A 
ENDROOT
BRANCH   3   1
ATOM      1  O   LIG    1        0.406  29.646  62.700  0.00  0.00    -0.491 OA
ATOM      2  C   LIG    1       -0.571  29.589  63.738  0.00  0.00    +0.277 C 
ENDBRANCH   3   1
BRANCH   7   8
ATOM      8  C   LIG    1        4.273  31.879  64.590  0.00  0.00    +0.015 C 
ATOM      9  C   LIG    1        4.512  30.953  65.545  0.00  0.00    +0.092 C 
BRANCH   9  10
ATOM     10  C   LIG    1        5.670  31.103  66.449  0.00  0.00    +0.330 C 
ATOM     11  O   LIG    1        5.682  31.685  67.521  0.00  0.00    -0.246 OA
BRANCH  10  12
ATOM     12  O   LIG    1        6.737  30.481  65.895  0.00  0.00    -0.478 OA
ATOM     13  H   LIG    1        6.556  30.190  64.976  0.00  0.00    +0.295 HD
ENDBRANCH  10  12
ENDBRANCH   9  10
ENDBRANCH   7   8
BRANCH   4  14
ATOM     14  O   LIG    1        0.049  31.740  60.907  0.00  0.00    -0.503 OA
ATOM     15  H   LIG    1        0.396  31.962  60.025  0.00  0.00    +0.292 HD
ENDBRANCH   4  14
TORSDOF 5
ENDMDL
MODEL 7
REMARK VINA RESULT:      -5.0     24.837     27.148
REMARK  Name = 445858
REMARK                            x       y       z     vdW  Elec       q    Type
REMARK                         _______ _______ _______ _____ _____    ______ ____
ROOT
ATOM      3  C   LIG    1      -16.223  29.577  45.821  0.00  0.00    +0.162 A 
ATOM      4  C   LIG    1      -15.780  28.454  46.520  0.00  0.00    +0.158 A 
ATOM      5  C   LIG    1      -15.104  27.436  45.848  0.00  0.00    +0.050 A 
ATOM      6  C   LIG    1      -14.871  27.541  44.476  0.00  0.00    +0.012 A 
ATOM      7  C   LIG    1      -15.313  28.663  43.778  0.00  0.00    -0.021 A 
ATOM     16  C   LIG    1      -15.990  29.682  44.449  0.00  0.00    +0.057 A 
ENDROOT
BRANCH   3   1
ATOM      1  O   LIG    1      -16.886  30.577  46.467  0.00  0.00    -0.491 OA
ATOM      2  C   LIG    1      -18.158  30.954  45.943  0.00  0.00    +0.277 C 
ENDBRANCH   3   1
BRANCH   7   8
ATOM      8  C   LIG    1      -15.069  28.773  42.349  0.00  0.00    +0.015 C 
ATOM      9  C   LIG    1      -16.018  28.728  41.387  0.00  0.00    +0.092 C 
BRANCH   9  10
ATOM     10  C   LIG    1      -15.641  28.862  39.966  0.00  0.00    +0.330 C 
ATOM     11  O   LIG    1      -15.981  29.754  39.207  0.00  0.00    -0.246 OA
BRANCH  10  12
ATOM     12  O   LIG    1      -14.841  27.822  39.630  0.00  0.00    -0.478 OA
ATOM     13  H   LIG    1      -14.854  27.647  38.665  0.00  0.00    +0.295 HD
ENDBRANCH  10  12
ENDBRANCH   9  10
ENDBRANCH   7   8
BRANCH   4  14
ATOM     14  O   LIG    1      -16.003  28.339  47.859  0.00  0.00    -0.503 OA
ATOM     15  H   LIG    1      -15.306  28.819  48.338  0.00  0.00    +0.292 HD
ENDBRANCH   4  14
TORSDOF 5
ENDMDL
MODEL 8
REMARK VINA RESULT:      -5.0     20.067     21.507
REMARK  Name = 445858
REMARK                            x       y       z     vdW  Elec       q    Type
REMARK                         _______ _______ _______ _____ _____    ______ ____
ROOT
ATOM      3  C   LIG    1       -7.761  16.971  51.713  0.00  0.00    +0.162 A 
ATOM      4  C   LIG    1       -6.719  16.636  52.578  0.00  0.00    +0.158 A 
ATOM      5  C   LIG    1       -6.718  17.118  53.886  0.00  0.00    +0.050 A 
ATOM      6  C   LIG    1       -7.758  17.935  54.330  0.00  0.00    +0.012 A 
ATOM      7  C   LIG    1       -8.799  18.270  53.465  0.00  0.00    -0.021 A 
ATOM     16  C   LIG    1       -8.801  17.788  52.157  0.00  0.00    +0.057 A 
ENDROOT
BRANCH   3   1
ATOM      1  O   LIG    1       -7.773  16.506  50.432  0.00  0.00    -0.491 OA
ATOM      2  C   LIG    1       -8.577  15.358  50.167  0.00  0.00    +0.277 C 
ENDBRANCH   3   1
BRANCH   7   8
ATOM      8  C   LIG    1       -9.883  19.121  53.928  0.00  0.00    +0.015 C 
ATOM      9  C   LIG    1      -10.956  19.491  53.193  0.00  0.00    +0.092 C 
BRANCH   9  10
ATOM     10  C   LIG    1      -11.997  20.354  53.785  0.00  0.00    +0.330 C 
ATOM     11  O   LIG    1      -13.127  20.016  54.097  0.00  0.00    -0.246 OA
BRANCH  10  12
ATOM     12  O   LIG    1      -11.495  21.602  53.932  0.00  0.00    -0.478 OA
ATOM     13  H   LIG    1      -12.126  22.200  54.385  0.00  0.00    +0.295 HD
ENDBRANCH  10  12
ENDBRANCH   9  10
ENDBRANCH   7   8
BRANCH   4  14
ATOM     14  O   LIG    1       -5.698  15.840  52.156  0.00  0.00    -0.503 OA
ATOM     15  H   LIG    1       -5.252  16.269  51.405  0.00  0.00    +0.292 HD
ENDBRANCH   4  14
TORSDOF 5
ENDMDL
MODEL 9
REMARK VINA RESULT:      -4.7      2.064      5.730
REMARK  Name = 445858
REMARK                            x       y       z     vdW  Elec       q    Type
REMARK                         _______ _______ _______ _____ _____    ______ ____
ROOT
ATOM      3  C   LIG    1        3.053  30.766  64.883  0.00  0.00    +0.162 A 
ATOM      4  C   LIG    1        4.235  31.480  64.684  0.00  0.00    +0.158 A 
ATOM      5  C   LIG    1        4.301  32.456  63.691  0.00  0.00    +0.050 A 
ATOM      6  C   LIG    1        3.185  32.718  62.895  0.00  0.00    +0.012 A 
ATOM      7  C   LIG    1        2.004  32.005  63.094  0.00  0.00    -0.021 A 
ATOM     16  C   LIG    1        1.937  31.029  64.088  0.00  0.00    +0.057 A 
ENDROOT
BRANCH   3   1
ATOM      1  O   LIG    1        2.976  29.809  65.851  0.00  0.00    -0.491 OA
ATOM      2  C   LIG    1        2.136  28.687  65.586  0.00  0.00    +0.277 C 
ENDBRANCH   3   1
BRANCH   7   8
ATOM      8  C   LIG    1        0.841  32.280  62.265  0.00  0.00    +0.015 C 
ATOM      9  C   LIG    1        0.506  33.489  61.763  0.00  0.00    +0.092 C 
BRANCH   9  10
ATOM     10  C   LIG    1       -0.699  33.635  60.924  0.00  0.00    +0.330 C 
ATOM     11  O   LIG    1       -1.279  34.676  60.662  0.00  0.00    -0.246 OA
BRANCH  10  12
ATOM     12  O   LIG    1       -1.071  32.411  60.481  0.00  0.00    -0.478 OA
ATOM     13  H   LIG    1       -0.297  31.840  60.290  0.00  0.00    +0.295 HD
ENDBRANCH  10  12
ENDBRANCH   9  10
ENDBRANCH   7   8
BRANCH   4  14
ATOM     14  O   LIG    1        5.331  31.231  65.454  0.00  0.00    -0.503 OA
ATOM     15  H   LIG    1        5.742  30.399  65.161  0.00  0.00    +0.292 HD
ENDBRANCH   4  14
TORSDOF 5
ENDMDL
