MODEL 1
REMARK VINA RESULT:      -5.8      0.000      0.000
REMARK  Name = 370
REMARK                            x       y       z     vdW  Elec       q    Type
REMARK                         _______ _______ _______ _____ _____    ______ ____
ROOT
ATOM      3  C   LIG    1       26.241  11.031  57.102  0.00  0.00    +0.201 A 
ATOM      4  C   LIG    1       25.359  11.671  57.973  0.00  0.00    +0.163 A 
ATOM      5  C   LIG    1       25.610  12.980  58.383  0.00  0.00    +0.064 A 
ATOM      6  C   LIG    1       26.743  13.651  57.922  0.00  0.00    +0.066 A 
ATOM     11  C   LIG    1       27.625  13.011  57.051  0.00  0.00    +0.064 A 
ATOM     14  C   LIG    1       27.375  11.702  56.641  0.00  0.00    +0.163 A 
ENDROOT
BRANCH   3   1
ATOM      1  O   LIG    1       25.996   9.752  56.700  0.00  0.00    -0.501 OA
ATOM      2  H   LIG    1       26.827   9.249  56.753  0.00  0.00    +0.292 HD
ENDBRANCH   3   1
BRANCH   6   7
ATOM      7  C   LIG    1       27.004  15.016  58.349  0.00  0.00    +0.337 C 
ATOM      8  O   LIG    1       27.954  15.377  59.051  0.00  0.00    -0.245 OA
BRANCH   7   9
ATOM      9  O   LIG    1       26.071  15.893  57.886  0.00  0.00    -0.477 OA
ATOM     10  H   LIG    1       25.336  16.015  58.525  0.00  0.00    +0.295 HD
ENDBRANCH   7   9
ENDBRANCH   6   7
BRANCH   4  12
ATOM     12  O   LIG    1       24.247  11.028  58.429  0.00  0.00    -0.503 OA
ATOM     13  H   LIG    1       23.475  11.593  58.255  0.00  0.00    +0.292 HD
ENDBRANCH   4  12
BRANCH  14  15
ATOM     15  O   LIG    1       28.244  11.088  55.791  0.00  0.00    -0.503 OA
ATOM     16  H   LIG    1       28.385  11.658  55.015  0.00  0.00    +0.292 HD
ENDBRANCH  14  15
TORSDOF 5
ENDMDL
MODEL 2
REMARK VINA RESULT:      -5.4     20.331     21.025
REMARK  Name = 370
REMARK                            x       y       z     vdW  Elec       q    Type
REMARK                         _______ _______ _______ _____ _____    ______ ____
ROOT
ATOM      3  C   LIG    1       11.012  18.217  44.324  0.00  0.00    +0.201 A 
ATOM      4  C   LIG    1       10.886  16.836  44.473  0.00  0.00    +0.163 A 
ATOM      5  C   LIG    1       11.753  15.980  43.794  0.00  0.00    +0.064 A 
ATOM      6  C   LIG    1       12.746  16.505  42.965  0.00  0.00    +0.066 A 
ATOM     11  C   LIG    1       12.870  17.886  42.817  0.00  0.00    +0.064 A 
ATOM     14  C   LIG    1       12.004  18.742  43.495  0.00  0.00    +0.163 A 
ENDROOT
BRANCH   3   1
ATOM      1  O   LIG    1       10.165  19.054  44.988  0.00  0.00    -0.501 OA
ATOM      2  H   LIG    1       10.310  18.943  45.944  0.00  0.00    +0.292 HD
ENDBRANCH   3   1
BRANCH   6   7
ATOM      7  C   LIG    1       13.650  15.612  42.258  0.00  0.00    +0.337 C 
ATOM      8  O   LIG    1       13.651  15.413  41.039  0.00  0.00    -0.245 OA
BRANCH   7   9
ATOM      9  O   LIG    1       14.528  14.992  43.094  0.00  0.00    -0.477 OA
ATOM     10  H   LIG    1       15.397  15.447  43.113  0.00  0.00    +0.295 HD
ENDBRANCH   7   9
ENDBRANCH   6   7
BRANCH   4  12
ATOM     12  O   LIG    1        9.923  16.310  45.281  0.00  0.00    -0.503 OA
ATOM     13  H   LIG    1        9.095  16.254  44.772  0.00  0.00    +0.292 HD
ENDBRANCH   4  12
BRANCH  14  15
ATOM     15  O   LIG    1       12.136  20.089  43.342  0.00  0.00    -0.503 OA
ATOM     16  H   LIG    1       12.968  20.275  42.874  0.00  0.00    +0.292 HD
ENDBRANCH  14  15
TORSDOF 5
ENDMDL
MODEL 3
REMARK VINA RESULT:      -5.4     20.371     21.149
REMARK  Name = 370
REMARK                            x       y       z     vdW  Elec       q    Type
REMARK                         _______ _______ _______ _____ _____    ______ ____
ROOT
ATOM      3  C   LIG    1       10.917  18.140  44.297  0.00  0.00    +0.201 A 
ATOM      4  C   LIG    1       11.964  18.684  43.552  0.00  0.00    +0.163 A 
ATOM      5  C   LIG    1       12.854  17.844  42.883  0.00  0.00    +0.064 A 
ATOM      6  C   LIG    1       12.699  16.460  42.960  0.00  0.00    +0.066 A 
ATOM     11  C   LIG    1       11.653  15.916  43.705  0.00  0.00    +0.064 A 
ATOM     14  C   LIG    1       10.762  16.755  44.373  0.00  0.00    +0.163 A 
ENDROOT
BRANCH   3   1
ATOM      1  O   LIG    1       10.046  18.961  44.950  0.00  0.00    -0.501 OA
ATOM      2  H   LIG    1       10.535  19.742  45.261  0.00  0.00    +0.292 HD
ENDBRANCH   3   1
BRANCH   6   7
ATOM      7  C   LIG    1       13.627  15.584  42.262  0.00  0.00    +0.337 C 
ATOM      8  O   LIG    1       13.638  15.378  41.044  0.00  0.00    -0.245 OA
BRANCH   7   9
ATOM      9  O   LIG    1       14.515  14.990  43.104  0.00  0.00    -0.477 OA
ATOM     10  H   LIG    1       14.984  15.647  43.664  0.00  0.00    +0.295 HD
ENDBRANCH   7   9
ENDBRANCH   6   7
BRANCH   4  12
ATOM     12  O   LIG    1       12.125  20.035  43.467  0.00  0.00    -0.503 OA
ATOM     13  H   LIG    1       12.410  20.363  44.337  0.00  0.00    +0.292 HD
ENDBRANCH   4  12
BRANCH  14  15
ATOM     15  O   LIG    1        9.745  16.212  45.098  0.00  0.00    -0.503 OA
ATOM     16  H   LIG    1        9.156  16.926  45.403  0.00  0.00    +0.292 HD
ENDBRANCH  14  15
TORSDOF 5
ENDMDL
MODEL 4
REMARK VINA RESULT:      -5.2     33.162     34.751
REMARK  Name = 370
REMARK                            x       y       z     vdW  Elec       q    Type
REMARK                         _______ _______ _______ _____ _____    ______ ____
ROOT
ATOM      3  C   LIG    1       -0.460  34.560  60.958  0.00  0.00    +0.201 A 
ATOM      4  C   LIG    1       -1.721  34.415  61.536  0.00  0.00    +0.163 A 
ATOM      5  C   LIG    1       -2.288  33.148  61.665  0.00  0.00    +0.064 A 
ATOM      6  C   LIG    1       -1.595  32.024  61.214  0.00  0.00    +0.066 A 
ATOM     11  C   LIG    1       -0.334  32.169  60.636  0.00  0.00    +0.064 A 
ATOM     14  C   LIG    1        0.234  33.436  60.507  0.00  0.00    +0.163 A 
ENDROOT
BRANCH   3   1
ATOM      1  O   LIG    1        0.096  35.799  60.833  0.00  0.00    -0.501 OA
ATOM      2  H   LIG    1        0.109  36.219  61.710  0.00  0.00    +0.292 HD
ENDBRANCH   3   1
BRANCH   6   7
ATOM      7  C   LIG    1       -2.186  30.702  61.349  0.00  0.00    +0.337 C 
ATOM      8  O   LIG    1       -2.093  29.975  62.344  0.00  0.00    -0.245 OA
BRANCH   7   9
ATOM      9  O   LIG    1       -2.877  30.325  60.239  0.00  0.00    -0.477 OA
ATOM     10  H   LIG    1       -3.814  30.120  60.444  0.00  0.00    +0.295 HD
ENDBRANCH   7   9
ENDBRANCH   6   7
BRANCH   4  12
ATOM     12  O   LIG    1       -2.408  35.505  61.982  0.00  0.00    -0.503 OA
ATOM     13  H   LIG    1       -3.184  35.632  61.409  0.00  0.00    +0.292 HD
ENDBRANCH   4  12
BRANCH  14  15
ATOM     15  O   LIG    1        1.465  33.564  59.940  0.00  0.00    -0.503 OA
ATOM     16  H   LIG    1        1.413  33.303  59.004  0.00  0.00    +0.292 HD
ENDBRANCH  14  15
TORSDOF 5
ENDMDL
MODEL 5
REMARK VINA RESULT:      -5.1      1.428      2.705
REMARK  Name = 370
REMARK                            x       y       z     vdW  Elec       q    Type
REMARK                         _______ _______ _______ _____ _____    ______ ____
ROOT
ATOM      3  C   LIG    1       25.459  11.655  58.006  0.00  0.00    +0.201 A 
ATOM      4  C   LIG    1       25.898  12.897  58.465  0.00  0.00    +0.163 A 
ATOM      5  C   LIG    1       27.071  13.454  57.958  0.00  0.00    +0.064 A 
ATOM      6  C   LIG    1       27.808  12.769  56.991  0.00  0.00    +0.066 A 
ATOM     11  C   LIG    1       27.369  11.527  56.532  0.00  0.00    +0.064 A 
ATOM     14  C   LIG    1       26.196  10.970  57.039  0.00  0.00    +0.163 A 
ENDROOT
BRANCH   3   1
ATOM      1  O   LIG    1       24.312  11.111  58.501  0.00  0.00    -0.501 OA
ATOM      2  H   LIG    1       24.231  10.203  58.161  0.00  0.00    +0.292 HD
ENDBRANCH   3   1
BRANCH   6   7
ATOM      7  C   LIG    1       29.031  13.350  56.461  0.00  0.00    +0.337 C 
ATOM      8  O   LIG    1       29.388  14.523  56.610  0.00  0.00    -0.245 OA
BRANCH   7   9
ATOM      9  O   LIG    1       29.773  12.450  55.760  0.00  0.00    -0.477 OA
ATOM     10  H   LIG    1       29.210  11.789  55.304  0.00  0.00    +0.295 HD
ENDBRANCH   7   9
ENDBRANCH   6   7
BRANCH   4  12
ATOM     12  O   LIG    1       25.186  13.578  59.408  0.00  0.00    -0.503 OA
ATOM     13  H   LIG    1       25.020  14.477  59.075  0.00  0.00    +0.292 HD
ENDBRANCH   4  12
BRANCH  14  15
ATOM     15  O   LIG    1       25.779   9.756  56.584  0.00  0.00    -0.503 OA
ATOM     16  H   LIG    1       25.744   9.776  55.612  0.00  0.00    +0.292 HD
ENDBRANCH  14  15
TORSDOF 5
ENDMDL
MODEL 6
REMARK VINA RESULT:      -4.9     24.233     25.693
REMARK  Name = 370
REMARK                            x       y       z     vdW  Elec       q    Type
REMARK                         _______ _______ _______ _____ _____    ______ ____
ROOT
ATOM      3  C   LIG    1        5.446  22.583  68.319  0.00  0.00    +0.201 A 
ATOM      4  C   LIG    1        6.748  22.883  67.916  0.00  0.00    +0.163 A 
ATOM      5  C   LIG    1        7.640  23.462  68.816  0.00  0.00    +0.064 A 
ATOM      6  C   LIG    1        7.232  23.743  70.121  0.00  0.00    +0.066 A 
ATOM     11  C   LIG    1        5.931  23.443  70.523  0.00  0.00    +0.064 A 
ATOM     14  C   LIG    1        5.038  22.864  69.623  0.00  0.00    +0.163 A 
ENDROOT
BRANCH   3   1
ATOM      1  O   LIG    1        4.573  22.016  67.439  0.00  0.00    -0.501 OA
ATOM      2  H   LIG    1        3.913  22.685  67.187  0.00  0.00    +0.292 HD
ENDBRANCH   3   1
BRANCH   6   7
ATOM      7  C   LIG    1        8.164  24.347  71.061  0.00  0.00    +0.337 C 
ATOM      8  O   LIG    1        8.245  24.073  72.263  0.00  0.00    -0.245 OA
BRANCH   7   9
ATOM      9  O   LIG    1        8.968  25.274  70.473  0.00  0.00    -0.477 OA
ATOM     10  H   LIG    1        8.480  25.818  69.818  0.00  0.00    +0.295 HD
ENDBRANCH   7   9
ENDBRANCH   6   7
BRANCH   4  12
ATOM     12  O   LIG    1        7.159  22.612  66.645  0.00  0.00    -0.503 OA
ATOM     13  H   LIG    1        6.375  22.584  66.070  0.00  0.00    +0.292 HD
ENDBRANCH   4  12
BRANCH  14  15
ATOM     15  O   LIG    1        3.769  22.577  70.028  0.00  0.00    -0.503 OA
ATOM     16  H   LIG    1        3.535  21.682  69.726  0.00  0.00    +0.292 HD
ENDBRANCH  14  15
TORSDOF 5
ENDMDL
MODEL 7
REMARK VINA RESULT:      -4.9     32.468     33.966
REMARK  Name = 370
REMARK                            x       y       z     vdW  Elec       q    Type
REMARK                         _______ _______ _______ _____ _____    ______ ____
ROOT
ATOM      3  C   LIG    1       -0.223  34.059  60.932  0.00  0.00    +0.201 A 
ATOM      4  C   LIG    1        0.659  33.091  60.451  0.00  0.00    +0.163 A 
ATOM      5  C   LIG    1        0.425  31.742  60.712  0.00  0.00    +0.064 A 
ATOM      6  C   LIG    1       -0.691  31.358  61.457  0.00  0.00    +0.066 A 
ATOM     11  C   LIG    1       -1.573  32.326  61.937  0.00  0.00    +0.064 A 
ATOM     14  C   LIG    1       -1.339  33.675  61.676  0.00  0.00    +0.163 A 
ENDROOT
BRANCH   3   1
ATOM      1  O   LIG    1        0.005  35.378  60.676  0.00  0.00    -0.501 OA
ATOM      2  H   LIG    1       -0.779  35.745  60.232  0.00  0.00    +0.292 HD
ENDBRANCH   3   1
BRANCH   6   7
ATOM      7  C   LIG    1       -0.936  29.951  61.729  0.00  0.00    +0.337 C 
ATOM      8  O   LIG    1       -0.722  29.382  62.804  0.00  0.00    -0.245 OA
BRANCH   7   9
ATOM      9  O   LIG    1       -1.442  29.293  60.650  0.00  0.00    -0.477 OA
ATOM     10  H   LIG    1       -1.964  28.505  60.914  0.00  0.00    +0.295 HD
ENDBRANCH   7   9
ENDBRANCH   6   7
BRANCH   4  12
ATOM     12  O   LIG    1        1.752  33.452  59.721  0.00  0.00    -0.503 OA
ATOM     13  H   LIG    1        1.997  32.705  59.148  0.00  0.00    +0.292 HD
ENDBRANCH   4  12
BRANCH  14  15
ATOM     15  O   LIG    1       -2.207  34.611  62.152  0.00  0.00    -0.503 OA
ATOM     16  H   LIG    1       -1.834  35.497  62.000  0.00  0.00    +0.292 HD
ENDBRANCH  14  15
TORSDOF 5
ENDMDL
MODEL 8
REMARK VINA RESULT:      -4.7     30.964     32.577
REMARK  Name = 370
REMARK                            x       y       z     vdW  Elec       q    Type
REMARK                         _______ _______ _______ _____ _____    ______ ____
ROOT
ATOM      3  C   LIG    1       -0.451  32.362  61.064  0.00  0.00    +0.201 A 
ATOM      4  C   LIG    1        0.045  31.096  61.378  0.00  0.00    +0.163 A 
ATOM      5  C   LIG    1        1.215  30.971  62.126  0.00  0.00    +0.064 A 
ATOM      6  C   LIG    1        1.891  32.112  62.560  0.00  0.00    +0.066 A 
ATOM     11  C   LIG    1        1.396  33.377  62.246  0.00  0.00    +0.064 A 
ATOM     14  C   LIG    1        0.226  33.503  61.498  0.00  0.00    +0.163 A 
ENDROOT
BRANCH   3   1
ATOM      1  O   LIG    1       -1.595  32.485  60.333  0.00  0.00    -0.501 OA
ATOM      2  H   LIG    1       -1.456  32.059  59.470  0.00  0.00    +0.292 HD
ENDBRANCH   3   1
BRANCH   6   7
ATOM      7  C   LIG    1        3.111  31.981  63.341  0.00  0.00    +0.337 C 
ATOM      8  O   LIG    1        3.380  31.040  64.095  0.00  0.00    -0.245 OA
BRANCH   7   9
ATOM      9  O   LIG    1        3.960  33.028  63.159  0.00  0.00    -0.477 OA
ATOM     10  H   LIG    1        3.938  33.360  62.235  0.00  0.00    +0.295 HD
ENDBRANCH   7   9
ENDBRANCH   6   7
BRANCH   4  12
ATOM     12  O   LIG    1       -0.608  29.975  60.961  0.00  0.00    -0.503 OA
ATOM     13  H   LIG    1        0.048  29.361  60.588  0.00  0.00    +0.292 HD
ENDBRANCH   4  12
BRANCH  14  15
ATOM     15  O   LIG    1       -0.248  34.744  61.197  0.00  0.00    -0.503 OA
ATOM     16  H   LIG    1       -0.986  34.956  61.796  0.00  0.00    +0.292 HD
ENDBRANCH  14  15
TORSDOF 5
ENDMDL
MODEL 9
REMARK VINA RESULT:      -4.7     21.967     22.787
REMARK  Name = 370
REMARK                            x       y       z     vdW  Elec       q    Type
REMARK                         _______ _______ _______ _____ _____    ______ ____
ROOT
ATOM      3  C   LIG    1       10.264  17.384  44.001  0.00  0.00    +0.201 A 
ATOM      4  C   LIG    1       11.467  16.742  43.705  0.00  0.00    +0.163 A 
ATOM      5  C   LIG    1       11.566  15.936  42.572  0.00  0.00    +0.064 A 
ATOM      6  C   LIG    1       10.462  15.769  41.735  0.00  0.00    +0.066 A 
ATOM     11  C   LIG    1        9.260  16.410  42.031  0.00  0.00    +0.064 A 
ATOM     14  C   LIG    1        9.160  17.217  43.164  0.00  0.00    +0.163 A 
ENDROOT
BRANCH   3   1
ATOM      1  O   LIG    1       10.167  18.174  45.109  0.00  0.00    -0.501 OA
ATOM      2  H   LIG    1       11.000  18.108  45.606  0.00  0.00    +0.292 HD
ENDBRANCH   3   1
BRANCH   6   7
ATOM      7  C   LIG    1       10.566  14.928  40.552  0.00  0.00    +0.337 C 
ATOM      8  O   LIG    1        9.644  14.676  39.771  0.00  0.00    -0.245 OA
BRANCH   7   9
ATOM      9  O   LIG    1       11.819  14.426  40.380  0.00  0.00    -0.477 OA
ATOM     10  H   LIG    1       12.460  14.818  41.011  0.00  0.00    +0.295 HD
ENDBRANCH   7   9
ENDBRANCH   6   7
BRANCH   4  12
ATOM     12  O   LIG    1       12.553  16.899  44.513  0.00  0.00    -0.503 OA
ATOM     13  H   LIG    1       12.800  16.026  44.864  0.00  0.00    +0.292 HD
ENDBRANCH   4  12
BRANCH  14  15
ATOM     15  O   LIG    1        7.980  17.838  43.444  0.00  0.00    -0.503 OA
ATOM     16  H   LIG    1        7.341  17.637  42.738  0.00  0.00    +0.292 HD
ENDBRANCH  14  15
TORSDOF 5
ENDMDL
