REMARK  Name = 
REMARK  4 active torsions:
REMARK  status: ('A' for Active; 'I' for Inactive)
REMARK    1  A    between atoms: O_2  and  C_3
REMARK    2  A    between atoms: C_5  and  C_6
REMARK    3  A    between atoms: C_7  and  C_8
REMARK    4  A    between atoms: C_16  and  O_17
REMARK                            x       y       z     vdW  Elec       q    Type
REMARK                         _______ _______ _______ _____ _____    ______ ____
ROOT
ATOM      1  C   UNL     1      -1.899   0.827   0.132  0.00  0.00    +0.000 A 
ATOM      2  C   UNL     1      -0.702   0.166   0.380  0.00  0.00    +0.000 A 
ATOM      3  C   UNL     1      -0.656  -1.192   0.622  0.00  0.00    +0.000 A 
ATOM      4  C   UNL     1      -1.882  -1.849   0.600  0.00  0.00    +0.000 A 
ATOM      5  C   UNL     1      -3.076  -1.191   0.404  0.00  0.00    +0.000 A 
ATOM      6  C   UNL     1      -3.086   0.173   0.300  0.00  0.00    +0.000 A 
ENDROOT
BRANCH   1   8
ATOM      7  C   UNL     1      -3.019   3.023   0.029  0.00  0.00    +0.000 C 
ATOM      8  O   UNL     1      -1.925   2.163  -0.272  0.00  0.00    +0.000 OA
ENDBRANCH   1   8
BRANCH   3   9
ATOM      9  C   UNL     1       0.484  -2.045   0.289  0.00  0.00    +0.000 C 
ATOM     10  C   UNL     1       1.333  -1.533  -0.602  0.00  0.00    +0.000 C 
BRANCH  10  11
ATOM     11  C   UNL     1       1.931  -0.265  -0.154  0.00  0.00    +0.000 A 
ATOM     12  C   UNL     1       2.976  -0.397   0.754  0.00  0.00    +0.000 A 
ATOM     13  C   UNL     1       4.111   0.387   0.701  0.00  0.00    +0.000 A 
ATOM     14  C   UNL     1       4.050   1.569  -0.008  0.00  0.00    +0.000 A 
ATOM     15  O   UNL     1       4.732   2.717   0.404  0.00  0.00    +0.000 OA
ATOM     16  C   UNL     1       3.057   1.687  -0.959  0.00  0.00    +0.000 A 
ATOM     17  C   UNL     1       2.182   0.652  -1.168  0.00  0.00    +0.000 A 
ENDBRANCH  10  11
ENDBRANCH   3   9
BRANCH   5  18
ATOM     18  O   UNL     1      -4.286  -1.858   0.326  0.00  0.00    +0.000 OA
ATOM     19  C   UNL     1      -4.326  -3.035  -0.449  0.00  0.00    +0.000 C 
ENDBRANCH   5  18
TORSDOF 4
