REMARK  Name = 
REMARK  5 active torsions:
REMARK  status: ('A' for Active; 'I' for Inactive)
REMARK    1  A    between atoms: C_2  and  C_3
REMARK    2  A    between atoms: C_5  and  O_6
REMARK    3  A    between atoms: O_6  and  C_7
REMARK    4  A    between atoms: C_12  and  C_13
REMARK    5  A    between atoms: C_14  and  C_15
REMARK                            x       y       z     vdW  Elec       q    Type
REMARK                         _______ _______ _______ _____ _____    ______ ____
ROOT
ATOM      1  C   UNL     1      -1.028  -1.058  -0.322  0.00  0.00    +0.000 A 
ATOM      2  C   UNL     1      -0.929  -2.247   0.367  0.00  0.00    +0.000 A 
ATOM      3  C   UNL     1       0.177  -2.547   1.151  0.00  0.00    +0.000 A 
ATOM      4  O   UNL     1       0.383  -3.867   1.520  0.00  0.00    +0.000 OA
ATOM      5  C   UNL     1       1.219  -1.631   1.092  0.00  0.00    +0.000 A 
ATOM      6  C   UNL     1       1.284  -0.620   0.168  0.00  0.00    +0.000 A 
ATOM      7  C   UNL     1       0.139  -0.349  -0.559  0.00  0.00    +0.000 A 
ENDROOT
BRANCH   6   8
ATOM      8  C   UNL     1       2.545  -0.076  -0.345  0.00  0.00    +0.000 C 
ATOM      9  C   UNL     1       3.603  -0.850  -0.236  0.00  0.00    +0.000 C 
BRANCH   9  10
ATOM     10  C   UNL     1       4.980  -0.368  -0.318  0.00  0.00    +0.000 A 
ATOM     11  C   UNL     1       5.307   0.326  -1.462  0.00  0.00    +0.000 A 
ATOM     12  C   UNL     1       6.522   0.994  -1.508  0.00  0.00    +0.000 A 
ATOM     13  C   UNL     1       7.109   1.365  -0.315  0.00  0.00    +0.000 A 
ATOM     14  O   UNL     1       8.054   2.387  -0.287  0.00  0.00    +0.000 OA
ATOM     15  C   UNL     1       6.726   0.732   0.845  0.00  0.00    +0.000 A 
ATOM     16  C   UNL     1       5.634  -0.123   0.863  0.00  0.00    +0.000 A 
ENDBRANCH   9  10
ENDBRANCH   6   8
BRANCH   1  17
ATOM     17  O   UNL     1      -2.279  -0.561  -0.703  0.00  0.00    +0.000 OA
BRANCH  17  20
ATOM     18  C   UNL     1      -4.002   1.274  -1.736  0.00  0.00    +0.000 C 
ATOM     19  O   UNL     1      -3.173   1.573  -0.524  0.00  0.00    +0.000 OA
ATOM     20  C   UNL     1      -2.765   0.454   0.423  0.00  0.00    +0.000 C 
ATOM     21  C   UNL     1      -4.404  -0.199   0.540  0.00  0.00    +0.000 C 
ATOM     22  O   UNL     1      -4.311  -0.314   2.034  0.00  0.00    +0.000 OA
ATOM     23  C   UNL     1      -4.977   1.429   0.660  0.00  0.00    +0.000 C 
ATOM     24  O   UNL     1      -6.320   0.941   1.175  0.00  0.00    +0.000 OA
ATOM     25  C   UNL     1      -5.581   1.425  -0.956  0.00  0.00    +0.000 C 
ATOM     26  O   UNL     1      -5.517   2.929  -1.034  0.00  0.00    +0.000 OA
BRANCH  18  28
ATOM     27  O   UNL     1      -4.279  -0.615  -2.905  0.00  0.00    +0.000 OA
ATOM     28  C   UNL     1      -4.121  -0.404  -1.710  0.00  0.00    +0.000 C 
ENDBRANCH  18  28
ENDBRANCH  17  20
ENDBRANCH   1  17
TORSDOF 5
