MODEL 1
REMARK VINA RESULT:      -0.0      0.000      0.000
REMARK  Name = 
REMARK  5 active torsions:
REMARK  status: ('A' for Active; 'I' for Inactive)
REMARK    1  A    between atoms: C_2  and  C_3
REMARK    2  A    between atoms: C_5  and  O_6
REMARK    3  A    between atoms: O_6  and  C_7
REMARK    4  A    between atoms: C_12  and  C_13
REMARK    5  A    between atoms: C_14  and  C_15
REMARK                            x       y       z     vdW  Elec       q    Type
REMARK                         _______ _______ _______ _____ _____    ______ ____
ROOT
ATOM      1  C   UNL     1      19.773  20.835  65.678  0.00  0.00    +0.000 A 
ATOM      2  C   UNL     1      19.442  19.724  64.934  0.00  0.00    +0.000 A 
ATOM      3  C   UNL     1      18.145  19.232  64.893  0.00  0.00    +0.000 A 
ATOM      4  O   UNL     1      17.945  17.940  64.434  0.00  0.00    +0.000 OA
ATOM      5  C   UNL     1      17.241  19.855  65.743  0.00  0.00    +0.000 A 
ATOM      6  C   UNL     1      17.613  20.734  66.728  0.00  0.00    +0.000 A 
ATOM      7  C   UNL     1      18.911  21.213  66.695  0.00  0.00    +0.000 A 
ENDROOT
BRANCH   6   8
ATOM      8  C   UNL     1      16.870  20.904  67.980  0.00  0.00    +0.000 C 
ATOM      9  C   UNL     1      17.470  21.593  68.927  0.00  0.00    +0.000 C 
BRANCH   9  10
ATOM     10  C   UNL     1      17.089  21.547  70.337  0.00  0.00    +0.000 A 
ATOM     11  C   UNL     1      16.003  20.757  70.641  0.00  0.00    +0.000 A 
ATOM     12  C   UNL     1      15.724  20.497  71.975  0.00  0.00    +0.000 A 
ATOM     13  C   UNL     1      16.756  20.586  72.887  0.00  0.00    +0.000 A 
ATOM     14  O   UNL     1      16.667  19.931  74.112  0.00  0.00    +0.000 OA
ATOM     15  C   UNL     1      17.881  21.306  72.557  0.00  0.00    +0.000 A 
ATOM     16  C   UNL     1      18.075  21.771  71.264  0.00  0.00    +0.000 A 
ENDBRANCH   9  10
ENDBRANCH   6   8
BRANCH   1  17
ATOM     17  O   UNL     1      20.909  21.589  65.362  0.00  0.00    +0.000 OA
BRANCH  17  20
ATOM     18  C   UNL     1      23.565  21.756  65.927  0.00  0.00    +0.000 C 
ATOM     19  O   UNL     1      22.524  22.046  66.964  0.00  0.00    +0.000 OA
ATOM     20  C   UNL     1      21.169  22.607  66.558  0.00  0.00    +0.000 C 
ATOM     21  C   UNL     1      21.870  23.876  65.547  0.00  0.00    +0.000 C 
ATOM     22  O   UNL     1      20.960  24.919  66.129  0.00  0.00    +0.000 OA
ATOM     23  C   UNL     1      23.037  24.140  66.796  0.00  0.00    +0.000 C 
ATOM     24  O   UNL     1      23.415  25.480  66.190  0.00  0.00    +0.000 OA
ATOM     25  C   UNL     1      24.294  23.367  65.902  0.00  0.00    +0.000 C 
ATOM     26  O   UNL     1      25.073  23.074  67.159  0.00  0.00    +0.000 OA
BRANCH  18  28
ATOM     27  O   UNL     1      23.336  21.277  63.752  0.00  0.00    +0.000 OA
ATOM     28  C   UNL     1      22.760  22.071  64.483  0.00  0.00    +0.000 C 
ENDBRANCH  18  28
ENDBRANCH  17  20
ENDBRANCH   1  17
TORSDOF 5
ENDMDL
MODEL 2
REMARK VINA RESULT:       0.0      7.270      9.613
REMARK  Name = 
REMARK  5 active torsions:
REMARK  status: ('A' for Active; 'I' for Inactive)
REMARK    1  A    between atoms: C_2  and  C_3
REMARK    2  A    between atoms: C_5  and  O_6
REMARK    3  A    between atoms: O_6  and  C_7
REMARK    4  A    between atoms: C_12  and  C_13
REMARK    5  A    between atoms: C_14  and  C_15
REMARK                            x       y       z     vdW  Elec       q    Type
REMARK                         _______ _______ _______ _____ _____    ______ ____
ROOT
ATOM      1  C   UNL     1       9.777  19.945  66.527  0.00  0.00    +0.000 A 
ATOM      2  C   UNL     1       9.123  19.127  65.632  0.00  0.00    +0.000 A 
ATOM      3  C   UNL     1       7.822  18.695  65.852  0.00  0.00    +0.000 A 
ATOM      4  O   UNL     1       7.355  17.614  65.121  0.00  0.00    +0.000 OA
ATOM      5  C   UNL     1       7.278  19.038  67.083  0.00  0.00    +0.000 A 
ATOM      6  C   UNL     1       8.014  19.559  68.115  0.00  0.00    +0.000 A 
ATOM      7  C   UNL     1       9.292  20.001  67.824  0.00  0.00    +0.000 A 
ENDROOT
BRANCH   6   8
ATOM      8  C   UNL     1       7.688  19.344  69.528  0.00  0.00    +0.000 C 
ATOM      9  C   UNL     1       8.455  19.955  70.405  0.00  0.00    +0.000 C 
BRANCH   9  10
ATOM     10  C   UNL     1       8.549  19.576  71.813  0.00  0.00    +0.000 A 
ATOM     11  C   UNL     1       7.593  18.691  72.263  0.00  0.00    +0.000 A 
ATOM     12  C   UNL     1       7.752  18.125  73.519  0.00  0.00    +0.000 A 
ATOM     13  C   UNL     1       9.026  18.052  74.046  0.00  0.00    +0.000 A 
ATOM     14  O   UNL     1       9.316  17.134  75.052  0.00  0.00    +0.000 OA
ATOM     15  C   UNL     1      10.007  18.876  73.544  0.00  0.00    +0.000 A 
ATOM     16  C   UNL     1       9.788  19.628  72.400  0.00  0.00    +0.000 A 
ENDBRANCH   9  10
ENDBRANCH   6   8
BRANCH   1  17
ATOM     17  O   UNL     1      10.850  20.739  66.109  0.00  0.00    +0.000 OA
BRANCH  17  20
ATOM     18  C   UNL     1      13.568  20.671  66.015  0.00  0.00    +0.000 C 
ATOM     19  O   UNL     1      12.831  20.741  67.318  0.00  0.00    +0.000 OA
ATOM     20  C   UNL     1      11.477  21.431  67.398  0.00  0.00    +0.000 C 
ATOM     21  C   UNL     1      12.037  22.880  66.554  0.00  0.00    +0.000 C 
ATOM     22  O   UNL     1      11.391  23.785  67.563  0.00  0.00    +0.000 OA
ATOM     23  C   UNL     1      13.485  22.794  67.499  0.00  0.00    +0.000 C 
ATOM     24  O   UNL     1      13.834  24.226  67.133  0.00  0.00    +0.000 OA
ATOM     25  C   UNL     1      14.418  22.213  66.169  0.00  0.00    +0.000 C 
ATOM     26  O   UNL     1      15.439  21.600  67.093  0.00  0.00    +0.000 OA
BRANCH  18  28
ATOM     27  O   UNL     1      12.794  20.737  63.915  0.00  0.00    +0.000 OA
ATOM     28  C   UNL     1      12.480  21.351  64.926  0.00  0.00    +0.000 C 
ENDBRANCH  18  28
ENDBRANCH  17  20
ENDBRANCH   1  17
TORSDOF 5
ENDMDL
MODEL 3
REMARK VINA RESULT:       0.0     12.601     14.724
REMARK  Name = 
REMARK  5 active torsions:
REMARK  status: ('A' for Active; 'I' for Inactive)
REMARK    1  A    between atoms: C_2  and  C_3
REMARK    2  A    between atoms: C_5  and  O_6
REMARK    3  A    between atoms: O_6  and  C_7
REMARK    4  A    between atoms: C_12  and  C_13
REMARK    5  A    between atoms: C_14  and  C_15
REMARK                            x       y       z     vdW  Elec       q    Type
REMARK                         _______ _______ _______ _____ _____    ______ ____
ROOT
ATOM      1  C   UNL     1       8.151  30.509  63.345  0.00  0.00    +0.000 A 
ATOM      2  C   UNL     1       7.777  31.003  62.114  0.00  0.00    +0.000 A 
ATOM      3  C   UNL     1       7.305  30.172  61.106  0.00  0.00    +0.000 A 
ATOM      4  O   UNL     1       7.287  30.658  59.808  0.00  0.00    +0.000 OA
ATOM      5  C   UNL     1       7.354  28.812  61.380  0.00  0.00    +0.000 A 
ATOM      6  C   UNL     1       8.024  28.281  62.452  0.00  0.00    +0.000 A 
ATOM      7  C   UNL     1       8.440  29.157  63.438  0.00  0.00    +0.000 A 
ENDROOT
BRANCH   6   8
ATOM      8  C   UNL     1       8.632  26.947  62.444  0.00  0.00    +0.000 C 
ATOM      9  C   UNL     1       9.429  26.661  63.450  0.00  0.00    +0.000 C 
BRANCH   9  10
ATOM     10  C   UNL     1      10.411  25.579  63.433  0.00  0.00    +0.000 A 
ATOM     11  C   UNL     1      10.439  24.811  62.290  0.00  0.00    +0.000 A 
ATOM     12  C   UNL     1      11.484  23.914  62.120  0.00  0.00    +0.000 A 
ATOM     13  C   UNL     1      12.668  24.156  62.787  0.00  0.00    +0.000 A 
ATOM     14  O   UNL     1      13.855  23.585  62.338  0.00  0.00    +0.000 OA
ATOM     15  C   UNL     1      12.661  24.990  63.881  0.00  0.00    +0.000 A 
ATOM     16  C   UNL     1      11.537  25.737  64.201  0.00  0.00    +0.000 A 
ENDBRANCH   9  10
ENDBRANCH   6   8
BRANCH   1  17
ATOM     17  O   UNL     1       8.166  31.342  64.469  0.00  0.00    +0.000 OA
BRANCH  17  20
ATOM     18  C   UNL     1       9.814  32.996  65.865  0.00  0.00    +0.000 C 
ATOM     19  O   UNL     1      10.055  31.518  65.805  0.00  0.00    +0.000 OA
ATOM     20  C   UNL     1       8.887  30.555  65.650  0.00  0.00    +0.000 C 
ATOM     21  C   UNL     1       7.948  31.306  66.947  0.00  0.00    +0.000 C 
ATOM     22  O   UNL     1       7.612  29.973  67.551  0.00  0.00    +0.000 OA
ATOM     23  C   UNL     1       9.410  31.400  67.866  0.00  0.00    +0.000 C 
ATOM     24  O   UNL     1       8.620  31.650  69.139  0.00  0.00    +0.000 OA
ATOM     25  C   UNL     1       9.561  33.100  67.611  0.00  0.00    +0.000 C 
ATOM     26  O   UNL     1      11.046  33.055  67.867  0.00  0.00    +0.000 OA
BRANCH  18  28
ATOM     27  O   UNL     1       8.127  34.216  65.043  0.00  0.00    +0.000 OA
ATOM     28  C   UNL     1       8.159  33.123  65.591  0.00  0.00    +0.000 C 
ENDBRANCH  18  28
ENDBRANCH  17  20
ENDBRANCH   1  17
TORSDOF 5
ENDMDL
MODEL 4
REMARK VINA RESULT:       0.0     12.794     16.389
REMARK  Name = 
REMARK  5 active torsions:
REMARK  status: ('A' for Active; 'I' for Inactive)
REMARK    1  A    between atoms: C_2  and  C_3
REMARK    2  A    between atoms: C_5  and  O_6
REMARK    3  A    between atoms: O_6  and  C_7
REMARK    4  A    between atoms: C_12  and  C_13
REMARK    5  A    between atoms: C_14  and  C_15
REMARK                            x       y       z     vdW  Elec       q    Type
REMARK                         _______ _______ _______ _____ _____    ______ ____
ROOT
ATOM      1  C   UNL     1       9.364  25.601  78.640  0.00  0.00    +0.000 A 
ATOM      2  C   UNL     1       9.512  25.760  80.001  0.00  0.00    +0.000 A 
ATOM      3  C   UNL     1       8.984  24.847  80.904  0.00  0.00    +0.000 A 
ATOM      4  O   UNL     1       8.853  25.233  82.229  0.00  0.00    +0.000 OA
ATOM      5  C   UNL     1       8.199  23.843  80.352  0.00  0.00    +0.000 A 
ATOM      6  C   UNL     1       7.766  23.854  79.051  0.00  0.00    +0.000 A 
ATOM      7  C   UNL     1       8.353  24.766  78.193  0.00  0.00    +0.000 A 
ENDROOT
BRANCH   6   8
ATOM      8  C   UNL     1       6.506  23.243  78.616  0.00  0.00    +0.000 C 
ATOM      9  C   UNL     1       6.105  23.536  77.398  0.00  0.00    +0.000 C 
BRANCH   9  10
ATOM     10  C   UNL     1       4.733  23.359  76.925  0.00  0.00    +0.000 A 
ATOM     11  C   UNL     1       3.852  22.807  77.828  0.00  0.00    +0.000 A 
ATOM     12  C   UNL     1       2.499  22.814  77.524  0.00  0.00    +0.000 A 
ATOM     13  C   UNL     1       2.034  23.765  76.638  0.00  0.00    +0.000 A 
ATOM     14  O   UNL     1       0.686  24.114  76.628  0.00  0.00    +0.000 OA
ATOM     15  C   UNL     1       2.924  24.381  75.788  0.00  0.00    +0.000 A 
ATOM     16  C   UNL     1       4.291  24.208  75.941  0.00  0.00    +0.000 A 
ENDBRANCH   9  10
ENDBRANCH   6   8
BRANCH   1  17
ATOM     17  O   UNL     1      10.256  26.215  77.754  0.00  0.00    +0.000 OA
BRANCH  17  20
ATOM     18  C   UNL     1      10.617  28.519  76.353  0.00  0.00    +0.000 C 
ATOM     19  O   UNL     1       9.496  27.576  76.035  0.00  0.00    +0.000 OA
ATOM     20  C   UNL     1       9.653  26.083  76.286  0.00  0.00    +0.000 C 
ATOM     21  C   UNL     1      11.220  25.995  75.470  0.00  0.00    +0.000 C 
ATOM     22  O   UNL     1      10.816  24.765  74.710  0.00  0.00    +0.000 OA
ATOM     23  C   UNL     1      10.566  27.020  74.239  0.00  0.00    +0.000 C 
ATOM     24  O   UNL     1      11.705  26.656  73.302  0.00  0.00    +0.000 OA
ATOM     25  C   UNL     1      11.447  28.394  74.797  0.00  0.00    +0.000 C 
ATOM     26  O   UNL     1      10.467  29.343  74.156  0.00  0.00    +0.000 OA
BRANCH  18  28
ATOM     27  O   UNL     1      12.292  28.325  77.825  0.00  0.00    +0.000 OA
ATOM     28  C   UNL     1      11.762  27.519  77.073  0.00  0.00    +0.000 C 
ENDBRANCH  18  28
ENDBRANCH  17  20
ENDBRANCH   1  17
TORSDOF 5
ENDMDL
MODEL 5
REMARK VINA RESULT:       0.0     17.565     19.785
REMARK  Name = 
REMARK  5 active torsions:
REMARK  status: ('A' for Active; 'I' for Inactive)
REMARK    1  A    between atoms: C_2  and  C_3
REMARK    2  A    between atoms: C_5  and  O_6
REMARK    3  A    between atoms: O_6  and  C_7
REMARK    4  A    between atoms: C_12  and  C_13
REMARK    5  A    between atoms: C_14  and  C_15
REMARK                            x       y       z     vdW  Elec       q    Type
REMARK                         _______ _______ _______ _____ _____    ______ ____
ROOT
ATOM      1  C   UNL     1       1.464  14.432  62.733  0.00  0.00    +0.000 A 
ATOM      2  C   UNL     1       0.654  13.916  63.721  0.00  0.00    +0.000 A 
ATOM      3  C   UNL     1      -0.602  14.445  63.986  0.00  0.00    +0.000 A 
ATOM      4  O   UNL     1      -1.207  14.131  65.193  0.00  0.00    +0.000 OA
ATOM      5  C   UNL     1      -0.930  15.594  63.279  0.00  0.00    +0.000 A 
ATOM      6  C   UNL     1      -0.023  16.312  62.543  0.00  0.00    +0.000 A 
ATOM      7  C   UNL     1       1.200  15.717  62.286  0.00  0.00    +0.000 A 
ENDROOT
BRANCH   6   8
ATOM      8  C   UNL     1      -0.117  17.760  62.335  0.00  0.00    +0.000 C 
ATOM      9  C   UNL     1       0.937  18.346  61.811  0.00  0.00    +0.000 C 
BRANCH   9  10
ATOM     10  C   UNL     1       1.195  19.782  61.884  0.00  0.00    +0.000 A 
ATOM     11  C   UNL     1       0.225  20.536  62.508  0.00  0.00    +0.000 A 
ATOM     12  C   UNL     1       0.504  21.862  62.804  0.00  0.00    +0.000 A 
ATOM     13  C   UNL     1       1.825  22.238  62.937  0.00  0.00    +0.000 A 
ATOM     14  O   UNL     1       2.158  23.389  63.645  0.00  0.00    +0.000 OA
ATOM     15  C   UNL     1       2.806  21.444  62.387  0.00  0.00    +0.000 A 
ATOM     16  C   UNL     1       2.505  20.190  61.879  0.00  0.00    +0.000 A 
ENDBRANCH   9  10
ENDBRANCH   6   8
BRANCH   1  17
ATOM     17  O   UNL     1       2.471  13.648  62.160  0.00  0.00    +0.000 OA
BRANCH  17  20
ATOM     18  C   UNL     1       5.099  13.031  62.500  0.00  0.00    +0.000 C 
ATOM     19  O   UNL     1       4.663  14.407  62.098  0.00  0.00    +0.000 OA
ATOM     20  C   UNL     1       3.394  14.603  61.283  0.00  0.00    +0.000 C 
ATOM     21  C   UNL     1       3.830  13.369  60.095  0.00  0.00    +0.000 C 
ATOM     22  O   UNL     1       3.460  14.263  58.947  0.00  0.00    +0.000 OA
ATOM     23  C   UNL     1       5.440  14.000  60.121  0.00  0.00    +0.000 C 
ATOM     24  O   UNL     1       5.772  13.268  58.833  0.00  0.00    +0.000 OA
ATOM     25  C   UNL     1       6.037  12.671  61.046  0.00  0.00    +0.000 C 
ATOM     26  O   UNL     1       7.201  13.484  61.551  0.00  0.00    +0.000 OA
BRANCH  18  28
ATOM     27  O   UNL     1       3.897  11.164  62.790  0.00  0.00    +0.000 OA
ATOM     28  C   UNL     1       3.837  12.059  61.957  0.00  0.00    +0.000 C 
ENDBRANCH  18  28
ENDBRANCH  17  20
ENDBRANCH   1  17
TORSDOF 5
ENDMDL
MODEL 6
REMARK VINA RESULT:       0.0     19.877     22.641
REMARK  Name = 
REMARK  5 active torsions:
REMARK  status: ('A' for Active; 'I' for Inactive)
REMARK    1  A    between atoms: C_2  and  C_3
REMARK    2  A    between atoms: C_5  and  O_6
REMARK    3  A    between atoms: O_6  and  C_7
REMARK    4  A    between atoms: C_12  and  C_13
REMARK    5  A    between atoms: C_14  and  C_15
REMARK                            x       y       z     vdW  Elec       q    Type
REMARK                         _______ _______ _______ _____ _____    ______ ____
ROOT
ATOM      1  C   UNL     1      -0.887  20.465  71.518  0.00  0.00    +0.000 A 
ATOM      2  C   UNL     1      -0.432  21.067  72.671  0.00  0.00    +0.000 A 
ATOM      3  C   UNL     1       0.798  20.742  73.228  0.00  0.00    +0.000 A 
ATOM      4  O   UNL     1       1.039  21.102  74.544  0.00  0.00    +0.000 OA
ATOM      5  C   UNL     1       1.471  19.691  72.620  0.00  0.00    +0.000 A 
ATOM      6  C   UNL     1       0.897  18.864  71.689  0.00  0.00    +0.000 A 
ATOM      7  C   UNL     1      -0.313  19.259  71.148  0.00  0.00    +0.000 A 
ENDROOT
BRANCH   6   8
ATOM      8  C   UNL     1       1.282  17.460  71.511  0.00  0.00    +0.000 C 
ATOM      9  C   UNL     1       0.485  16.726  70.765  0.00  0.00    +0.000 C 
BRANCH   9  10
ATOM     10  C   UNL     1       0.467  15.265  70.782  0.00  0.00    +0.000 A 
ATOM     11  C   UNL     1       1.387  14.662  71.610  0.00  0.00    +0.000 A 
ATOM     12  C   UNL     1       1.280  13.298  71.838  0.00  0.00    +0.000 A 
ATOM     13  C   UNL     1       0.046  12.702  71.671  0.00  0.00    +0.000 A 
ATOM     14  O   UNL     1      -0.235  11.486  72.288  0.00  0.00    +0.000 OA
ATOM     15  C   UNL     1      -0.908  13.340  70.912  0.00  0.00    +0.000 A 
ATOM     16  C   UNL     1      -0.720  14.645  70.481  0.00  0.00    +0.000 A 
ENDBRANCH   9  10
ENDBRANCH   6   8
BRANCH   1  17
ATOM     17  O   UNL     1      -1.850  21.095  70.721  0.00  0.00    +0.000 OA
BRANCH  17  20
ATOM     18  C   UNL     1      -4.549  21.286  70.439  0.00  0.00    +0.000 C 
ATOM     19  O   UNL     1      -3.821  20.004  70.165  0.00  0.00    +0.000 OA
ATOM     20  C   UNL     1      -2.384  20.029  69.667  0.00  0.00    +0.000 C 
ATOM     21  C   UNL     1      -2.725  21.209  68.395  0.00  0.00    +0.000 C 
ATOM     22  O   UNL     1      -1.966  20.412  67.374  0.00  0.00    +0.000 OA
ATOM     23  C   UNL     1      -4.178  20.333  68.058  0.00  0.00    +0.000 C 
ATOM     24  O   UNL     1      -4.317  21.036  66.719  0.00  0.00    +0.000 OA
ATOM     25  C   UNL     1      -5.173  21.529  68.804  0.00  0.00    +0.000 C 
ATOM     26  O   UNL     1      -6.279  20.532  69.037  0.00  0.00    +0.000 OA
BRANCH  18  28
ATOM     27  O   UNL     1      -3.756  23.310  70.974  0.00  0.00    +0.000 OA
ATOM     28  C   UNL     1      -3.366  22.455  70.190  0.00  0.00    +0.000 C 
ENDBRANCH  18  28
ENDBRANCH  17  20
ENDBRANCH   1  17
TORSDOF 5
ENDMDL
MODEL 7
REMARK VINA RESULT:       0.0     12.650     15.319
REMARK  Name = 
REMARK  5 active torsions:
REMARK  status: ('A' for Active; 'I' for Inactive)
REMARK    1  A    between atoms: C_2  and  C_3
REMARK    2  A    between atoms: C_5  and  O_6
REMARK    3  A    between atoms: O_6  and  C_7
REMARK    4  A    between atoms: C_12  and  C_13
REMARK    5  A    between atoms: C_14  and  C_15
REMARK                            x       y       z     vdW  Elec       q    Type
REMARK                         _______ _______ _______ _____ _____    ______ ____
ROOT
ATOM      1  C   UNL     1       6.484  22.351  60.068  0.00  0.00    +0.000 A 
ATOM      2  C   UNL     1       6.163  21.193  60.742  0.00  0.00    +0.000 A 
ATOM      3  C   UNL     1       5.771  21.209  62.074  0.00  0.00    +0.000 A 
ATOM      4  O   UNL     1       5.809  20.019  62.785  0.00  0.00    +0.000 OA
ATOM      5  C   UNL     1       5.846  22.443  62.707  0.00  0.00    +0.000 A 
ATOM      6  C   UNL     1       6.472  23.534  62.161  0.00  0.00    +0.000 A 
ATOM      7  C   UNL     1       6.808  23.469  60.821  0.00  0.00    +0.000 A 
ENDROOT
BRANCH   6   8
ATOM      8  C   UNL     1       7.119  24.577  62.962  0.00  0.00    +0.000 C 
ATOM      9  C   UNL     1       7.874  25.433  62.307  0.00  0.00    +0.000 C 
BRANCH   9  10
ATOM     10  C   UNL     1       8.887  26.276  62.937  0.00  0.00    +0.000 A 
ATOM     11  C   UNL     1       8.995  26.167  64.306  0.00  0.00    +0.000 A 
ATOM     12  C   UNL     1      10.073  26.770  64.937  0.00  0.00    +0.000 A 
ATOM     13  C   UNL     1      11.215  27.005  64.197  0.00  0.00    +0.000 A 
ATOM     14  O   UNL     1      12.439  27.181  64.836  0.00  0.00    +0.000 OA
ATOM     15  C   UNL     1      11.129  27.033  62.824  0.00  0.00    +0.000 A 
ATOM     16  C   UNL     1       9.969  26.639  62.174  0.00  0.00    +0.000 A 
ENDBRANCH   9  10
ENDBRANCH   6   8
BRANCH   1  17
ATOM     17  O   UNL     1       6.413  22.402  58.672  0.00  0.00    +0.000 OA
BRANCH  17  20
ATOM     18  C   UNL     1       7.935  21.954  56.461  0.00  0.00    +0.000 C 
ATOM     19  O   UNL     1       8.242  23.072  57.411  0.00  0.00    +0.000 OA
ATOM     20  C   UNL     1       7.124  23.744  58.195  0.00  0.00    +0.000 C 
ATOM     21  C   UNL     1       6.107  23.973  56.767  0.00  0.00    +0.000 C 
ATOM     22  O   UNL     1       5.809  25.397  57.140  0.00  0.00    +0.000 OA
ATOM     23  C   UNL     1       7.530  24.453  55.907  0.00  0.00    +0.000 C 
ATOM     24  O   UNL     1       6.683  25.058  54.801  0.00  0.00    +0.000 OA
ATOM     25  C   UNL     1       7.614  22.961  55.045  0.00  0.00    +0.000 C 
ATOM     26  O   UNL     1       9.089  23.137  54.790  0.00  0.00    +0.000 OA
BRANCH  18  28
ATOM     27  O   UNL     1       6.227  20.507  56.446  0.00  0.00    +0.000 OA
ATOM     28  C   UNL     1       6.287  21.705  56.689  0.00  0.00    +0.000 C 
ENDBRANCH  18  28
ENDBRANCH  17  20
ENDBRANCH   1  17
TORSDOF 5
ENDMDL
MODEL 8
REMARK VINA RESULT:       0.0     33.900     37.652
REMARK  Name = 
REMARK  5 active torsions:
REMARK  status: ('A' for Active; 'I' for Inactive)
REMARK    1  A    between atoms: C_2  and  C_3
REMARK    2  A    between atoms: C_5  and  O_6
REMARK    3  A    between atoms: O_6  and  C_7
REMARK    4  A    between atoms: C_12  and  C_13
REMARK    5  A    between atoms: C_14  and  C_15
REMARK                            x       y       z     vdW  Elec       q    Type
REMARK                         _______ _______ _______ _____ _____    ______ ____
ROOT
ATOM      1  C   UNL     1     -12.165  14.425  55.412  0.00  0.00    +0.000 A 
ATOM      2  C   UNL     1     -10.822  14.219  55.182  0.00  0.00    +0.000 A 
ATOM      3  C   UNL     1     -10.154  14.850  54.141  0.00  0.00    +0.000 A 
ATOM      4  O   UNL     1      -8.926  14.343  53.745  0.00  0.00    +0.000 OA
ATOM      5  C   UNL     1     -10.951  15.594  53.282  0.00  0.00    +0.000 A 
ATOM      6  C   UNL     1     -12.322  15.546  53.291  0.00  0.00    +0.000 A 
ATOM      7  C   UNL     1     -12.928  14.932  54.372  0.00  0.00    +0.000 A 
ENDROOT
BRANCH   6   8
ATOM      8  C   UNL     1     -13.145  15.762  52.097  0.00  0.00    +0.000 C 
ATOM      9  C   UNL     1     -14.417  15.445  52.199  0.00  0.00    +0.000 C 
BRANCH   9  10
ATOM     10  C   UNL     1     -15.297  15.216  51.055  0.00  0.00    +0.000 A 
ATOM     11  C   UNL     1     -14.727  15.395  49.814  0.00  0.00    +0.000 A 
ATOM     12  C   UNL     1     -15.436  14.986  48.694  0.00  0.00    +0.000 A 
ATOM     13  C   UNL     1     -16.395  14.006  48.849  0.00  0.00    +0.000 A 
ATOM     14  O   UNL     1     -16.812  13.254  47.755  0.00  0.00    +0.000 OA
ATOM     15  C   UNL     1     -16.909  13.765  50.103  0.00  0.00    +0.000 A 
ATOM     16  C   UNL     1     -16.344  14.347  51.228  0.00  0.00    +0.000 A 
ENDBRANCH   9  10
ENDBRANCH   6   8
BRANCH   1  17
ATOM     17  O   UNL     1     -12.712  14.191  56.678  0.00  0.00    +0.000 OA
BRANCH  17  20
ATOM     18  C   UNL     1     -13.872  12.220  58.152  0.00  0.00    +0.000 C 
ATOM     19  O   UNL     1     -14.548  12.797  56.946  0.00  0.00    +0.000 OA
ATOM     20  C   UNL     1     -14.297  14.243  56.542  0.00  0.00    +0.000 C 
ATOM     21  C   UNL     1     -14.584  14.867  58.172  0.00  0.00    +0.000 C 
ATOM     22  O   UNL     1     -15.463  15.969  57.655  0.00  0.00    +0.000 OA
ATOM     23  C   UNL     1     -15.932  13.787  58.280  0.00  0.00    +0.000 C 
ATOM     24  O   UNL     1     -16.474  14.551  59.476  0.00  0.00    +0.000 OA
ATOM     25  C   UNL     1     -15.092  12.710  59.334  0.00  0.00    +0.000 C 
ATOM     26  O   UNL     1     -15.984  11.559  58.945  0.00  0.00    +0.000 OA
BRANCH  18  28
ATOM     27  O   UNL     1     -11.953  12.804  59.147  0.00  0.00    +0.000 OA
ATOM     28  C   UNL     1     -12.855  13.465  58.649  0.00  0.00    +0.000 C 
ENDBRANCH  18  28
ENDBRANCH  17  20
ENDBRANCH   1  17
TORSDOF 5
ENDMDL
MODEL 9
REMARK VINA RESULT:       0.0     25.050     28.635
REMARK  Name = 
REMARK  5 active torsions:
REMARK  status: ('A' for Active; 'I' for Inactive)
REMARK    1  A    between atoms: C_2  and  C_3
REMARK    2  A    between atoms: C_5  and  O_6
REMARK    3  A    between atoms: O_6  and  C_7
REMARK    4  A    between atoms: C_12  and  C_13
REMARK    5  A    between atoms: C_14  and  C_15
REMARK                            x       y       z     vdW  Elec       q    Type
REMARK                         _______ _______ _______ _____ _____    ______ ____
ROOT
ATOM      1  C   UNL     1      -9.145  19.281  65.533  0.00  0.00    +0.000 A 
ATOM      2  C   UNL     1      -9.847  19.744  66.625  0.00  0.00    +0.000 A 
ATOM      3  C   UNL     1      -9.221  20.426  67.660  0.00  0.00    +0.000 A 
ATOM      4  O   UNL     1      -9.890  20.547  68.867  0.00  0.00    +0.000 OA
ATOM      5  C   UNL     1      -7.836  20.497  67.579  0.00  0.00    +0.000 A 
ATOM      6  C   UNL     1      -7.093  19.766  66.688  0.00  0.00    +0.000 A 
ATOM      7  C   UNL     1      -7.773  19.136  65.661  0.00  0.00    +0.000 A 
ENDROOT
BRANCH   6   8
ATOM      8  C   UNL     1      -5.724  19.317  66.956  0.00  0.00    +0.000 C 
ATOM      9  C   UNL     1      -5.224  18.433  66.121  0.00  0.00    +0.000 C 
BRANCH   9  10
ATOM     10  C   UNL     1      -4.069  17.589  66.419  0.00  0.00    +0.000 A 
ATOM     11  C   UNL     1      -3.475  17.793  67.645  0.00  0.00    +0.000 A 
ATOM     12  C   UNL     1      -2.519  16.886  68.078  0.00  0.00    +0.000 A 
ATOM     13  C   UNL     1      -2.550  15.607  67.560  0.00  0.00    +0.000 A 
ATOM     14  O   UNL     1      -1.941  14.559  68.245  0.00  0.00    +0.000 OA
ATOM     15  C   UNL     1      -3.213  15.381  66.376  0.00  0.00    +0.000 A 
ATOM     16  C   UNL     1      -4.007  16.364  65.804  0.00  0.00    +0.000 A 
ENDBRANCH   9  10
ENDBRANCH   6   8
BRANCH   1  17
ATOM     17  O   UNL     1      -9.800  19.035  64.321  0.00  0.00    +0.000 OA
BRANCH  17  20
ATOM     18  C   UNL     1     -11.104  17.045  63.002  0.00  0.00    +0.000 C 
ATOM     19  O   UNL     1      -9.635  16.963  63.288  0.00  0.00    +0.000 OA
ATOM     20  C   UNL     1      -8.799  18.231  63.380  0.00  0.00    +0.000 C 
ATOM     21  C   UNL     1      -9.428  18.892  61.865  0.00  0.00    +0.000 C 
ATOM     22  O   UNL     1      -8.053  19.266  61.393  0.00  0.00    +0.000 OA
ATOM     23  C   UNL     1      -9.276  17.309  61.184  0.00  0.00    +0.000 C 
ATOM     24  O   UNL     1      -9.403  17.877  59.781  0.00  0.00    +0.000 OA
ATOM     25  C   UNL     1     -10.977  17.030  61.239  0.00  0.00    +0.000 C 
ATOM     26  O   UNL     1     -10.780  15.535  61.228  0.00  0.00    +0.000 OA
BRANCH  18  28
ATOM     27  O   UNL     1     -12.557  18.704  63.382  0.00  0.00    +0.000 OA
ATOM     28  C   UNL     1     -11.398  18.701  62.992  0.00  0.00    +0.000 C 
ENDBRANCH  18  28
ENDBRANCH  17  20
ENDBRANCH   1  17
TORSDOF 5
ENDMDL
MODEL 10
REMARK VINA RESULT:       0.0     29.290     32.178
REMARK  Name = 
REMARK  5 active torsions:
REMARK  status: ('A' for Active; 'I' for Inactive)
REMARK    1  A    between atoms: C_2  and  C_3
REMARK    2  A    between atoms: C_5  and  O_6
REMARK    3  A    between atoms: O_6  and  C_7
REMARK    4  A    between atoms: C_12  and  C_13
REMARK    5  A    between atoms: C_14  and  C_15
REMARK                            x       y       z     vdW  Elec       q    Type
REMARK                         _______ _______ _______ _____ _____    ______ ____
ROOT
ATOM      1  C   UNL     1      -6.762  35.746  72.076  0.00  0.00    +0.000 A 
ATOM      2  C   UNL     1      -7.336  34.505  71.911  0.00  0.00    +0.000 A 
ATOM      3  C   UNL     1      -7.905  34.117  70.706  0.00  0.00    +0.000 A 
ATOM      4  O   UNL     1      -8.763  33.029  70.704  0.00  0.00    +0.000 OA
ATOM      5  C   UNL     1      -7.966  35.101  69.728  0.00  0.00    +0.000 A 
ATOM      6  C   UNL     1      -7.709  36.425  69.973  0.00  0.00    +0.000 A 
ATOM      7  C   UNL     1      -7.112  36.744  71.180  0.00  0.00    +0.000 A 
ENDROOT
BRANCH   6   8
ATOM      8  C   UNL     1      -8.340  37.520  69.231  0.00  0.00    +0.000 C 
ATOM      9  C   UNL     1      -8.172  38.731  69.718  0.00  0.00    +0.000 C 
BRANCH   9  10
ATOM     10  C   UNL     1      -9.012  39.875  69.372  0.00  0.00    +0.000 A 
ATOM     11  C   UNL     1     -10.002  39.636  68.445  0.00  0.00    +0.000 A 
ATOM     12  C   UNL     1     -10.965  40.612  68.237  0.00  0.00    +0.000 A 
ATOM     13  C   UNL     1     -11.208  41.517  69.250  0.00  0.00    +0.000 A 
ATOM     14  O   UNL     1     -12.414  42.211  69.296  0.00  0.00    +0.000 OA
ATOM     15  C   UNL     1     -10.256  41.701  70.227  0.00  0.00    +0.000 A 
ATOM     16  C   UNL     1      -9.157  40.859  70.317  0.00  0.00    +0.000 A 
ENDBRANCH   9  10
ENDBRANCH   6   8
BRANCH   1  17
ATOM     17  O   UNL     1      -5.806  35.960  73.075  0.00  0.00    +0.000 OA
BRANCH  17  20
ATOM     18  C   UNL     1      -5.600  36.727  75.677  0.00  0.00    +0.000 C 
ATOM     19  O   UNL     1      -6.052  37.680  74.613  0.00  0.00    +0.000 OA
ATOM     20  C   UNL     1      -5.554  37.528  73.183  0.00  0.00    +0.000 C 
ATOM     21  C   UNL     1      -3.859  37.391  73.668  0.00  0.00    +0.000 C 
ATOM     22  O   UNL     1      -3.421  38.363  72.610  0.00  0.00    +0.000 OA
ATOM     23  C   UNL     1      -4.141  38.677  74.791  0.00  0.00    +0.000 C 
ATOM     24  O   UNL     1      -2.646  38.895  74.948  0.00  0.00    +0.000 OA
ATOM     25  C   UNL     1      -4.140  37.607  76.144  0.00  0.00    +0.000 C 
ATOM     26  O   UNL     1      -4.945  38.577  76.971  0.00  0.00    +0.000 OA
BRANCH  18  28
ATOM     27  O   UNL     1      -4.875  34.616  75.510  0.00  0.00    +0.000 OA
ATOM     28  C   UNL     1      -4.682  35.608  74.820  0.00  0.00    +0.000 C 
ENDBRANCH  18  28
ENDBRANCH  17  20
ENDBRANCH   1  17
TORSDOF 5
ENDMDL
