REMARK  Name = 
REMARK  4 active torsions:
REMARK  status: ('A' for Active; 'I' for Inactive)
REMARK    1  A    between atoms: O_2  and  C_3
REMARK    2  A    between atoms: C_5  and  C_6
REMARK    3  A    between atoms: C_7  and  C_8
REMARK    4  A    between atoms: C_16  and  O_17
REMARK                            x       y       z     vdW  Elec       q    Type
REMARK                         _______ _______ _______ _____ _____    ______ ____
ROOT
ATOM      1  C   UNL     1      -2.893   1.216  -0.511  0.00  0.00    +0.000 A 
ATOM      2  C   UNL     1      -1.558   0.845  -0.616  0.00  0.00    +0.000 A 
ATOM      3  C   UNL     1      -1.099  -0.299  -0.013  0.00  0.00    +0.000 A 
ATOM      4  C   UNL     1      -2.034  -1.307   0.188  0.00  0.00    +0.000 A 
ATOM      5  C   UNL     1      -3.397  -1.055   0.188  0.00  0.00    +0.000 A 
ATOM      6  C   UNL     1      -3.786   0.219  -0.184  0.00  0.00    +0.000 A 
ENDROOT
BRANCH   1   8
ATOM      7  C   UNL     1      -4.322   3.017   0.316  0.00  0.00    +0.000 C 
ATOM      8  O   UNL     1      -3.235   2.572  -0.484  0.00  0.00    +0.000 OA
ENDBRANCH   1   8
BRANCH   3   9
ATOM      9  C   UNL     1       0.293  -0.636   0.170  0.00  0.00    +0.000 C 
ATOM     10  C   UNL     1       1.230   0.182   0.593  0.00  0.00    +0.000 C 
BRANCH  10  11
ATOM     11  C   UNL     1       2.597  -0.104   0.168  0.00  0.00    +0.000 A 
ATOM     12  C   UNL     1       3.268  -1.254   0.569  0.00  0.00    +0.000 A 
ATOM     13  C   UNL     1       4.650  -1.309   0.433  0.00  0.00    +0.000 A 
ATOM     14  C   UNL     1       5.379  -0.223  -0.034  0.00  0.00    +0.000 A 
ATOM     15  O   UNL     1       6.628   0.058   0.529  0.00  0.00    +0.000 OA
ATOM     16  C   UNL     1       4.657   0.739  -0.730  0.00  0.00    +0.000 A 
ATOM     17  C   UNL     1       3.269   0.678  -0.762  0.00  0.00    +0.000 A 
ENDBRANCH  10  11
ENDBRANCH   3   9
BRANCH   5  18
ATOM     18  O   UNL     1      -4.279  -1.896   0.860  0.00  0.00    +0.000 OA
ATOM     19  C   UNL     1      -5.367  -1.441   1.623  0.00  0.00    +0.000 C 
ENDBRANCH   5  18
TORSDOF 4
