REMARK  Name = 
REMARK  5 active torsions:
REMARK  status: ('A' for Active; 'I' for Inactive)
REMARK    1  A    between atoms: O_2  and  C_3
REMARK    2  A    between atoms: C_5  and  C_6
REMARK    3  A    between atoms: C_7  and  C_8
REMARK    4  A    between atoms: C_13  and  O_14
REMARK    5  A    between atoms: C_18  and  O_19
REMARK                            x       y       z     vdW  Elec       q    Type
REMARK                         _______ _______ _______ _____ _____    ______ ____
ROOT
ATOM      1  C   UNL     1      -0.208   0.446  -0.474  0.00  0.00    +0.000 C 
ATOM      2  C   UNL     1       0.712  -0.484  -0.549  0.00  0.00    +0.000 C 
ENDROOT
BRANCH   2   3
ATOM      3  C   UNL     1       2.023  -0.399   0.084  0.00  0.00    +0.000 A 
ATOM      4  C   UNL     1       2.172  -0.145   1.442  0.00  0.00    +0.000 A 
ATOM      5  C   UNL     1       3.244   0.621   1.882  0.00  0.00    +0.000 A 
ATOM      6  C   UNL     1       4.336   0.840   1.054  0.00  0.00    +0.000 A 
ATOM      7  O   UNL     1       5.207   1.892   1.234  0.00  0.00    +0.000 OA
ATOM      8  C   UNL     1       4.368   0.116  -0.132  0.00  0.00    +0.000 A 
ATOM      9  C   UNL     1       3.209  -0.462  -0.637  0.00  0.00    +0.000 A 
BRANCH   8  10
ATOM     10  O   UNL     1       5.615  -0.121  -0.713  0.00  0.00    +0.000 OA
ATOM     11  C   UNL     1       6.218  -1.392  -0.481  0.00  0.00    +0.000 C 
ENDBRANCH   8  10
ENDBRANCH   2   3
BRANCH   1  14
ATOM     12  C   UNL     1      -3.864   1.054  -0.423  0.00  0.00    +0.000 A 
ATOM     13  C   UNL     1      -2.522   1.133  -0.749  0.00  0.00    +0.000 A 
ATOM     14  C   UNL     1      -1.636   0.157  -0.310  0.00  0.00    +0.000 A 
ATOM     15  C   UNL     1      -2.091  -0.623   0.746  0.00  0.00    +0.000 A 
ATOM     16  C   UNL     1      -3.432  -0.939   0.871  0.00  0.00    +0.000 A 
ATOM     17  C   UNL     1      -4.301  -0.141   0.137  0.00  0.00    +0.000 A 
BRANCH  12  19
ATOM     18  C   UNL     1      -6.155   1.755  -0.930  0.00  0.00    +0.000 C 
ATOM     19  O   UNL     1      -4.763   1.957  -0.957  0.00  0.00    +0.000 OA
ENDBRANCH  12  19
BRANCH  16  20
ATOM     20  O   UNL     1      -3.873  -2.228   1.179  0.00  0.00    +0.000 OA
ATOM     21  C   UNL     1      -4.260  -3.038   0.072  0.00  0.00    +0.000 C 
ENDBRANCH  16  20
ENDBRANCH   1  14
TORSDOF 5
