MODEL 1
REMARK VINA RESULT:      -0.0      0.000      0.000
REMARK  Name = 
REMARK  5 active torsions:
REMARK  status: ('A' for Active; 'I' for Inactive)
REMARK    1  A    between atoms: O_2  and  C_3
REMARK    2  A    between atoms: C_5  and  C_6
REMARK    3  A    between atoms: C_7  and  C_8
REMARK    4  A    between atoms: C_13  and  O_14
REMARK    5  A    between atoms: C_18  and  O_19
REMARK                            x       y       z     vdW  Elec       q    Type
REMARK                         _______ _______ _______ _____ _____    ______ ____
ROOT
ATOM      1  C   UNL     1      11.719  25.338  52.513  0.00  0.00    +0.000 C 
ATOM      2  C   UNL     1      11.396  24.696  53.608  0.00  0.00    +0.000 C 
ENDROOT
BRANCH   2   3
ATOM      3  C   UNL     1      12.222  23.673  54.238  0.00  0.00    +0.000 A 
ATOM      4  C   UNL     1      11.676  22.656  55.012  0.00  0.00    +0.000 A 
ATOM      5  C   UNL     1      12.372  22.191  56.121  0.00  0.00    +0.000 A 
ATOM      6  C   UNL     1      13.724  22.468  56.268  0.00  0.00    +0.000 A 
ATOM      7  O   UNL     1      14.365  22.421  57.486  0.00  0.00    +0.000 OA
ATOM      8  C   UNL     1      14.355  23.062  55.181  0.00  0.00    +0.000 A 
ATOM      9  C   UNL     1      13.611  23.700  54.195  0.00  0.00    +0.000 A 
BRANCH   8  10
ATOM     10  O   UNL     1      15.732  22.876  55.050  0.00  0.00    +0.000 OA
ATOM     11  C   UNL     1      16.179  21.646  54.483  0.00  0.00    +0.000 C 
ENDBRANCH   8  10
ENDBRANCH   2   3
BRANCH   1  14
ATOM     12  C   UNL     1      11.526  28.948  53.331  0.00  0.00    +0.000 A 
ATOM     13  C   UNL     1      11.919  27.621  53.317  0.00  0.00    +0.000 A 
ATOM     14  C   UNL     1      11.473  26.770  52.314  0.00  0.00    +0.000 A 
ATOM     15  C   UNL     1      10.359  27.214  51.613  0.00  0.00    +0.000 A 
ATOM     16  C   UNL     1      10.155  28.562  51.381  0.00  0.00    +0.000 A 
ATOM     17  C   UNL     1      10.887  29.421  52.191  0.00  0.00    +0.000 A 
BRANCH  12  19
ATOM     18  C   UNL     1      13.070  29.448  55.165  0.00  0.00    +0.000 C 
ATOM     19  O   UNL     1      12.062  29.821  54.258  0.00  0.00    +0.000 OA
ENDBRANCH  12  19
BRANCH  16  20
ATOM     20  O   UNL     1       9.762  29.057  50.135  0.00  0.00    +0.000 OA
ATOM     21  C   UNL     1      10.794  29.189  49.161  0.00  0.00    +0.000 C 
ENDBRANCH  16  20
ENDBRANCH   1  14
TORSDOF 5
ENDMDL
MODEL 2
REMARK VINA RESULT:      -0.0     11.727     14.793
REMARK  Name = 
REMARK  5 active torsions:
REMARK  status: ('A' for Active; 'I' for Inactive)
REMARK    1  A    between atoms: O_2  and  C_3
REMARK    2  A    between atoms: C_5  and  C_6
REMARK    3  A    between atoms: C_7  and  C_8
REMARK    4  A    between atoms: C_13  and  O_14
REMARK    5  A    between atoms: C_18  and  O_19
REMARK                            x       y       z     vdW  Elec       q    Type
REMARK                         _______ _______ _______ _____ _____    ______ ____
ROOT
ATOM      1  C   UNL     1      -1.021  24.556  49.919  0.00  0.00    +0.000 C 
ATOM      2  C   UNL     1      -1.800  25.558  49.594  0.00  0.00    +0.000 C 
ENDROOT
BRANCH   2   3
ATOM      3  C   UNL     1      -2.760  26.183  50.498  0.00  0.00    +0.000 A 
ATOM      4  C   UNL     1      -3.909  26.812  50.034  0.00  0.00    +0.000 A 
ATOM      5  C   UNL     1      -4.380  27.944  50.686  0.00  0.00    +0.000 A 
ATOM      6  C   UNL     1      -3.941  28.250  51.966  0.00  0.00    +0.000 A 
ATOM      7  O   UNL     1      -4.018  29.519  52.496  0.00  0.00    +0.000 OA
ATOM      8  C   UNL     1      -3.167  27.286  52.602  0.00  0.00    +0.000 A 
ATOM      9  C   UNL     1      -2.544  26.284  51.866  0.00  0.00    +0.000 A 
BRANCH   8  10
ATOM     10  O   UNL     1      -3.156  27.281  53.998  0.00  0.00    +0.000 OA
ATOM     11  C   UNL     1      -4.255  26.664  54.663  0.00  0.00    +0.000 C 
ENDBRANCH   8  10
ENDBRANCH   2   3
BRANCH   1  14
ATOM     12  C   UNL     1       2.438  25.640  49.148  0.00  0.00    +0.000 A 
ATOM     13  C   UNL     1       1.183  25.559  49.723  0.00  0.00    +0.000 A 
ATOM     14  C   UNL     1       0.378  24.450  49.493  0.00  0.00    +0.000 A 
ATOM     15  C   UNL     1       0.734  23.678  48.395  0.00  0.00    +0.000 A 
ATOM     16  C   UNL     1       2.059  23.536  48.024  0.00  0.00    +0.000 A 
ATOM     17  C   UNL     1       2.928  24.483  48.552  0.00  0.00    +0.000 A 
BRANCH  12  19
ATOM     18  C   UNL     1       2.963  27.656  50.436  0.00  0.00    +0.000 C 
ATOM     19  O   UNL     1       3.284  26.684  49.471  0.00  0.00    +0.000 OA
ENDBRANCH  12  19
BRANCH  16  20
ATOM     20  O   UNL     1       2.613  22.302  47.678  0.00  0.00    +0.000 OA
ATOM     21  C   UNL     1       2.970  21.449  48.763  0.00  0.00    +0.000 C 
ENDBRANCH  16  20
ENDBRANCH   1  14
TORSDOF 5
ENDMDL
MODEL 3
REMARK VINA RESULT:      -0.0     20.524     24.530
REMARK  Name = 
REMARK  5 active torsions:
REMARK  status: ('A' for Active; 'I' for Inactive)
REMARK    1  A    between atoms: O_2  and  C_3
REMARK    2  A    between atoms: C_5  and  C_6
REMARK    3  A    between atoms: C_7  and  C_8
REMARK    4  A    between atoms: C_13  and  O_14
REMARK    5  A    between atoms: C_18  and  O_19
REMARK                            x       y       z     vdW  Elec       q    Type
REMARK                         _______ _______ _______ _____ _____    ______ ____
ROOT
ATOM      1  C   UNL     1       0.728   8.136  63.340  0.00  0.00    +0.000 C 
ATOM      2  C   UNL     1      -0.416   8.698  63.643  0.00  0.00    +0.000 C 
ENDROOT
BRANCH   2   3
ATOM      3  C   UNL     1      -0.837  10.015  63.177  0.00  0.00    +0.000 A 
ATOM      4  C   UNL     1      -1.722  10.805  63.901  0.00  0.00    +0.000 A 
ATOM      5  C   UNL     1      -2.637  11.603  63.225  0.00  0.00    +0.000 A 
ATOM      6  C   UNL     1      -2.460  11.887  61.878  0.00  0.00    +0.000 A 
ATOM      7  O   UNL     1      -3.493  12.290  61.061  0.00  0.00    +0.000 OA
ATOM      8  C   UNL     1      -1.253  11.488  61.316  0.00  0.00    +0.000 A 
ATOM      9  C   UNL     1      -0.468  10.525  61.939  0.00  0.00    +0.000 A 
BRANCH   8  10
ATOM     10  O   UNL     1      -0.801  12.182  60.192  0.00  0.00    +0.000 OA
ATOM     11  C   UNL     1      -0.150  13.432  60.408  0.00  0.00    +0.000 C 
ENDBRANCH   8  10
ENDBRANCH   2   3
BRANCH   1  14
ATOM     12  C   UNL     1      -0.095   4.826  61.890  0.00  0.00    +0.000 A 
ATOM     13  C   UNL     1       0.005   6.193  62.073  0.00  0.00    +0.000 A 
ATOM     14  C   UNL     1       0.870   6.710  63.030  0.00  0.00    +0.000 A 
ATOM     15  C   UNL     1       1.289   5.807  63.998  0.00  0.00    +0.000 A 
ATOM     16  C   UNL     1       1.473   4.470  63.692  0.00  0.00    +0.000 A 
ATOM     17  C   UNL     1       0.864   4.040  62.520  0.00  0.00    +0.000 A 
BRANCH  12  19
ATOM     18  C   UNL     1      -1.508   5.134  59.914  0.00  0.00    +0.000 C 
ATOM     19  O   UNL     1      -0.863   4.317  60.861  0.00  0.00    +0.000 OA
ENDBRANCH  12  19
BRANCH  16  20
ATOM     20  O   UNL     1       2.593   3.751  64.117  0.00  0.00    +0.000 OA
ATOM     21  C   UNL     1       3.785   3.945  63.361  0.00  0.00    +0.000 C 
ENDBRANCH  16  20
ENDBRANCH   1  14
TORSDOF 5
ENDMDL
MODEL 4
REMARK VINA RESULT:      -0.0     12.812     16.490
REMARK  Name = 
REMARK  5 active torsions:
REMARK  status: ('A' for Active; 'I' for Inactive)
REMARK    1  A    between atoms: O_2  and  C_3
REMARK    2  A    between atoms: C_5  and  C_6
REMARK    3  A    between atoms: C_7  and  C_8
REMARK    4  A    between atoms: C_13  and  O_14
REMARK    5  A    between atoms: C_18  and  O_19
REMARK                            x       y       z     vdW  Elec       q    Type
REMARK                         _______ _______ _______ _____ _____    ______ ____
ROOT
ATOM      1  C   UNL     1       3.223  17.423  61.175  0.00  0.00    +0.000 C 
ATOM      2  C   UNL     1       2.186  17.149  60.422  0.00  0.00    +0.000 C 
ENDROOT
BRANCH   2   3
ATOM      3  C   UNL     1       2.231  17.031  58.969  0.00  0.00    +0.000 A 
ATOM      4  C   UNL     1       1.124  17.295  58.172  0.00  0.00    +0.000 A 
ATOM      5  C   UNL     1       0.913  16.544  57.022  0.00  0.00    +0.000 A 
ATOM      6  C   UNL     1       1.944  15.791  56.478  0.00  0.00    +0.000 A 
ATOM      7  O   UNL     1       1.721  14.728  55.631  0.00  0.00    +0.000 OA
ATOM      8  C   UNL     1       3.205  15.976  57.032  0.00  0.00    +0.000 A 
ATOM      9  C   UNL     1       3.345  16.552  58.290  0.00  0.00    +0.000 A 
BRANCH   8  10
ATOM     10  O   UNL     1       4.313  15.693  56.231  0.00  0.00    +0.000 OA
ATOM     11  C   UNL     1       4.714  16.685  55.289  0.00  0.00    +0.000 C 
ENDBRANCH   8  10
ENDBRANCH   2   3
BRANCH   1  14
ATOM     12  C   UNL     1       3.416  14.714  63.697  0.00  0.00    +0.000 A 
ATOM     13  C   UNL     1       3.429  15.392  62.491  0.00  0.00    +0.000 A 
ATOM     14  C   UNL     1       3.472  16.780  62.469  0.00  0.00    +0.000 A 
ATOM     15  C   UNL     1       3.113  17.403  63.658  0.00  0.00    +0.000 A 
ATOM     16  C   UNL     1       3.396  16.820  64.880  0.00  0.00    +0.000 A 
ATOM     17  C   UNL     1       3.690  15.462  64.837  0.00  0.00    +0.000 A 
BRANCH  12  19
ATOM     18  C   UNL     1       3.664  12.561  62.558  0.00  0.00    +0.000 C 
ATOM     19  O   UNL     1       3.493  13.335  63.720  0.00  0.00    +0.000 OA
ENDBRANCH  12  19
BRANCH  16  20
ATOM     20  O   UNL     1       3.929  17.543  65.950  0.00  0.00    +0.000 OA
ATOM     21  C   UNL     1       5.331  17.791  65.901  0.00  0.00    +0.000 C 
ENDBRANCH  16  20
ENDBRANCH   1  14
TORSDOF 5
ENDMDL
MODEL 5
REMARK VINA RESULT:       0.0     26.328     28.273
REMARK  Name = 
REMARK  5 active torsions:
REMARK  status: ('A' for Active; 'I' for Inactive)
REMARK    1  A    between atoms: O_2  and  C_3
REMARK    2  A    between atoms: C_5  and  C_6
REMARK    3  A    between atoms: C_7  and  C_8
REMARK    4  A    between atoms: C_13  and  O_14
REMARK    5  A    between atoms: C_18  and  O_19
REMARK                            x       y       z     vdW  Elec       q    Type
REMARK                         _______ _______ _______ _____ _____    ______ ____
ROOT
ATOM      1  C   UNL     1      24.310   2.546  57.766  0.00  0.00    +0.000 C 
ATOM      2  C   UNL     1      23.078   2.140  57.946  0.00  0.00    +0.000 C 
ENDROOT
BRANCH   2   3
ATOM      3  C   UNL     1      22.231   1.586  56.895  0.00  0.00    +0.000 A 
ATOM      4  C   UNL     1      20.846   1.682  56.936  0.00  0.00    +0.000 A 
ATOM      5  C   UNL     1      20.072   0.638  56.445  0.00  0.00    +0.000 A 
ATOM      6  C   UNL     1      20.635  -0.323  55.616  0.00  0.00    +0.000 A 
ATOM      7  O   UNL     1      20.080  -1.571  55.441  0.00  0.00    +0.000 OA
ATOM      8  C   UNL     1      21.931  -0.079  55.177  0.00  0.00    +0.000 A 
ATOM      9  C   UNL     1      22.739   0.837  55.840  0.00  0.00    +0.000 A 
BRANCH   8  10
ATOM     10  O   UNL     1      22.333  -0.676  53.981  0.00  0.00    +0.000 OA
ATOM     11  C   UNL     1      21.931  -0.050  52.765  0.00  0.00    +0.000 C 
ENDBRANCH   8  10
ENDBRANCH   2   3
BRANCH   1  14
ATOM     12  C   UNL     1      26.376   0.719  60.243  0.00  0.00    +0.000 A 
ATOM     13  C   UNL     1      25.551   0.998  59.168  0.00  0.00    +0.000 A 
ATOM     14  C   UNL     1      25.388   2.307  58.731  0.00  0.00    +0.000 A 
ATOM     15  C   UNL     1      25.761   3.286  59.644  0.00  0.00    +0.000 A 
ATOM     16  C   UNL     1      26.812   3.079  60.519  0.00  0.00    +0.000 A 
ATOM     17  C   UNL     1      27.192   1.753  60.688  0.00  0.00    +0.000 A 
BRANCH  12  19
ATOM     18  C   UNL     1      26.149  -1.690  59.870  0.00  0.00    +0.000 C 
ATOM     19  O   UNL     1      26.631  -0.590  60.602  0.00  0.00    +0.000 OA
ENDBRANCH  12  19
BRANCH  16  20
ATOM     20  O   UNL     1      27.790   4.047  60.758  0.00  0.00    +0.000 OA
ATOM     21  C   UNL     1      28.814   4.158  59.774  0.00  0.00    +0.000 C 
ENDBRANCH  16  20
ENDBRANCH   1  14
TORSDOF 5
ENDMDL
MODEL 6
REMARK VINA RESULT:       0.0     21.847     23.190
REMARK  Name = 
REMARK  5 active torsions:
REMARK  status: ('A' for Active; 'I' for Inactive)
REMARK    1  A    between atoms: O_2  and  C_3
REMARK    2  A    between atoms: C_5  and  C_6
REMARK    3  A    between atoms: C_7  and  C_8
REMARK    4  A    between atoms: C_13  and  O_14
REMARK    5  A    between atoms: C_18  and  O_19
REMARK                            x       y       z     vdW  Elec       q    Type
REMARK                         _______ _______ _______ _____ _____    ______ ____
ROOT
ATOM      1  C   UNL     1      -9.430  19.434  59.479  0.00  0.00    +0.000 C 
ATOM      2  C   UNL     1      -8.418  19.614  60.293  0.00  0.00    +0.000 C 
ENDROOT
BRANCH   2   3
ATOM      3  C   UNL     1      -7.047  19.860  59.861  0.00  0.00    +0.000 A 
ATOM      4  C   UNL     1      -5.953  19.499  60.638  0.00  0.00    +0.000 A 
ATOM      5  C   UNL     1      -4.821  20.304  60.641  0.00  0.00    +0.000 A 
ATOM      6  C   UNL     1      -4.629  21.249  59.644  0.00  0.00    +0.000 A 
ATOM      7  O   UNL     1      -3.794  22.334  59.797  0.00  0.00    +0.000 OA
ATOM      8  C   UNL     1      -5.520  21.213  58.578  0.00  0.00    +0.000 A 
ATOM      9  C   UNL     1      -6.741  20.560  58.701  0.00  0.00    +0.000 A 
BRANCH   8  10
ATOM     10  O   UNL     1      -5.088  21.729  57.354  0.00  0.00    +0.000 OA
ATOM     11  C   UNL     1      -4.268  20.893  56.541  0.00  0.00    +0.000 C 
ENDBRANCH   8  10
ENDBRANCH   2   3
BRANCH   1  14
ATOM     12  C   UNL     1     -12.002  21.917  60.459  0.00  0.00    +0.000 A 
ATOM     13  C   UNL     1     -10.827  21.354  59.995  0.00  0.00    +0.000 A 
ATOM     14  C   UNL     1     -10.764  19.994  59.715  0.00  0.00    +0.000 A 
ATOM     15  C   UNL     1     -11.772  19.226  60.285  0.00  0.00    +0.000 A 
ATOM     16  C   UNL     1     -13.045  19.738  60.459  0.00  0.00    +0.000 A 
ATOM     17  C   UNL     1     -13.141  21.123  60.396  0.00  0.00    +0.000 A 
BRANCH  12  19
ATOM     18  C   UNL     1     -11.068  24.172  60.265  0.00  0.00    +0.000 C 
ATOM     19  O   UNL     1     -12.099  23.285  60.624  0.00  0.00    +0.000 OA
ENDBRANCH  12  19
BRANCH  16  20
ATOM     20  O   UNL     1     -14.195  19.014  60.136  0.00  0.00    +0.000 OA
ATOM     21  C   UNL     1     -14.547  18.982  58.755  0.00  0.00    +0.000 C 
ENDBRANCH  16  20
ENDBRANCH   1  14
TORSDOF 5
ENDMDL
MODEL 7
REMARK VINA RESULT:       0.0     20.134     22.090
REMARK  Name = 
REMARK  5 active torsions:
REMARK  status: ('A' for Active; 'I' for Inactive)
REMARK    1  A    between atoms: O_2  and  C_3
REMARK    2  A    between atoms: C_5  and  C_6
REMARK    3  A    between atoms: C_7  and  C_8
REMARK    4  A    between atoms: C_13  and  O_14
REMARK    5  A    between atoms: C_18  and  O_19
REMARK                            x       y       z     vdW  Elec       q    Type
REMARK                         _______ _______ _______ _____ _____    ______ ____
ROOT
ATOM      1  C   UNL     1      -2.441  15.943  63.678  0.00  0.00    +0.000 C 
ATOM      2  C   UNL     1      -1.851  15.683  64.819  0.00  0.00    +0.000 C 
ENDROOT
BRANCH   2   3
ATOM      3  C   UNL     1      -1.346  16.699  65.735  0.00  0.00    +0.000 A 
ATOM      4  C   UNL     1      -0.286  16.452  66.599  0.00  0.00    +0.000 A 
ATOM      5  C   UNL     1      -0.281  17.033  67.860  0.00  0.00    +0.000 A 
ATOM      6  C   UNL     1      -1.115  18.106  68.142  0.00  0.00    +0.000 A 
ATOM      7  O   UNL     1      -1.476  18.452  69.425  0.00  0.00    +0.000 OA
ATOM      8  C   UNL     1      -1.796  18.659  67.064  0.00  0.00    +0.000 A 
ATOM      9  C   UNL     1      -1.950  17.941  65.883  0.00  0.00    +0.000 A 
BRANCH   8  10
ATOM     10  O   UNL     1      -2.193  19.994  67.163  0.00  0.00    +0.000 OA
ATOM     11  C   UNL     1      -1.211  20.993  66.900  0.00  0.00    +0.000 C 
ENDBRANCH   8  10
ENDBRANCH   2   3
BRANCH   1  14
ATOM     12  C   UNL     1      -5.706  14.191  63.777  0.00  0.00    +0.000 A 
ATOM     13  C   UNL     1      -4.674  15.065  64.064  0.00  0.00    +0.000 A 
ATOM     14  C   UNL     1      -3.606  15.202  63.185  0.00  0.00    +0.000 A 
ATOM     15  C   UNL     1      -3.461  14.169  62.267  0.00  0.00    +0.000 A 
ATOM     16  C   UNL     1      -4.564  13.505  61.762  0.00  0.00    +0.000 A 
ATOM     17  C   UNL     1      -5.737  13.661  62.492  0.00  0.00    +0.000 A 
BRANCH  12  19
ATOM     18  C   UNL     1      -7.009  15.010  65.681  0.00  0.00    +0.000 C 
ATOM     19  O   UNL     1      -6.822  14.143  64.590  0.00  0.00    +0.000 OA
ENDBRANCH  12  19
BRANCH  16  20
ATOM     20  O   UNL     1      -4.706  13.209  60.404  0.00  0.00    +0.000 OA
ATOM     21  C   UNL     1      -5.144  14.281  59.573  0.00  0.00    +0.000 C 
ENDBRANCH  16  20
ENDBRANCH   1  14
TORSDOF 5
ENDMDL
MODEL 8
REMARK VINA RESULT:       0.0     22.626     23.959
REMARK  Name = 
REMARK  5 active torsions:
REMARK  status: ('A' for Active; 'I' for Inactive)
REMARK    1  A    between atoms: O_2  and  C_3
REMARK    2  A    between atoms: C_5  and  C_6
REMARK    3  A    between atoms: C_7  and  C_8
REMARK    4  A    between atoms: C_13  and  O_14
REMARK    5  A    between atoms: C_18  and  O_19
REMARK                            x       y       z     vdW  Elec       q    Type
REMARK                         _______ _______ _______ _____ _____    ______ ____
ROOT
ATOM      1  C   UNL     1      -1.609  29.749  71.771  0.00  0.00    +0.000 C 
ATOM      2  C   UNL     1      -2.386  29.043  72.556  0.00  0.00    +0.000 C 
ENDROOT
BRANCH   2   3
ATOM      3  C   UNL     1      -2.231  27.614  72.800  0.00  0.00    +0.000 A 
ATOM      4  C   UNL     1      -3.306  26.802  73.141  0.00  0.00    +0.000 A 
ATOM      5  C   UNL     1      -3.116  25.751  74.029  0.00  0.00    +0.000 A 
ATOM      6  C   UNL     1      -1.837  25.290  74.306  0.00  0.00    +0.000 A 
ATOM      7  O   UNL     1      -1.534  24.576  75.445  0.00  0.00    +0.000 OA
ATOM      8  C   UNL     1      -0.810  25.806  73.525  0.00  0.00    +0.000 A 
ATOM      9  C   UNL     1      -0.991  26.986  72.812  0.00  0.00    +0.000 A 
BRANCH   8  10
ATOM     10  O   UNL     1       0.343  25.034  73.378  0.00  0.00    +0.000 OA
ATOM     11  C   UNL     1       0.310  23.978  72.421  0.00  0.00    +0.000 C 
ENDBRANCH   8  10
ENDBRANCH   2   3
BRANCH   1  14
ATOM     12  C   UNL     1      -0.356  32.571  73.821  0.00  0.00    +0.000 A 
ATOM     13  C   UNL     1      -0.589  31.294  73.345  0.00  0.00    +0.000 A 
ATOM     14  C   UNL     1      -1.159  31.107  72.091  0.00  0.00    +0.000 A 
ATOM     15  C   UNL     1      -1.806  32.218  71.564  0.00  0.00    +0.000 A 
ATOM     16  C   UNL     1      -1.349  33.497  71.824  0.00  0.00    +0.000 A 
ATOM     17  C   UNL     1      -0.488  33.612  72.908  0.00  0.00    +0.000 A 
BRANCH  12  19
ATOM     18  C   UNL     1       0.861  31.692  75.756  0.00  0.00    +0.000 C 
ATOM     19  O   UNL     1       0.317  32.756  75.013  0.00  0.00    +0.000 OA
ENDBRANCH  12  19
BRANCH  16  20
ATOM     20  O   UNL     1      -1.235  34.469  70.827  0.00  0.00    +0.000 OA
ATOM     21  C   UNL     1      -0.083  34.377  69.993  0.00  0.00    +0.000 C 
ENDBRANCH  16  20
ENDBRANCH   1  14
TORSDOF 5
ENDMDL
MODEL 9
REMARK VINA RESULT:       0.0     27.804     30.359
REMARK  Name = 
REMARK  5 active torsions:
REMARK  status: ('A' for Active; 'I' for Inactive)
REMARK    1  A    between atoms: O_2  and  C_3
REMARK    2  A    between atoms: C_5  and  C_6
REMARK    3  A    between atoms: C_7  and  C_8
REMARK    4  A    between atoms: C_13  and  O_14
REMARK    5  A    between atoms: C_18  and  O_19
REMARK                            x       y       z     vdW  Elec       q    Type
REMARK                         _______ _______ _______ _____ _____    ______ ____
ROOT
ATOM      1  C   UNL     1      -9.898   9.783  65.018  0.00  0.00    +0.000 C 
ATOM      2  C   UNL     1     -11.050  10.339  64.732  0.00  0.00    +0.000 C 
ENDROOT
BRANCH   2   3
ATOM      3  C   UNL     1     -12.314   9.989  65.370  0.00  0.00    +0.000 A 
ATOM      4  C   UNL     1     -13.535  10.142  64.724  0.00  0.00    +0.000 A 
ATOM      5  C   UNL     1     -14.654  10.520  65.454  0.00  0.00    +0.000 A 
ATOM      6  C   UNL     1     -14.658  10.411  66.838  0.00  0.00    +0.000 A 
ATOM      7  O   UNL     1     -15.518  11.132  67.638  0.00  0.00    +0.000 OA
ATOM      8  C   UNL     1     -13.578   9.750  67.409  0.00  0.00    +0.000 A 
ATOM      9  C   UNL     1     -12.397   9.580  66.696  0.00  0.00    +0.000 A 
BRANCH   8  10
ATOM     10  O   UNL     1     -13.769   9.153  68.656  0.00  0.00    +0.000 OA
ATOM     11  C   UNL     1     -14.409   7.879  68.684  0.00  0.00    +0.000 C 
ENDBRANCH   8  10
ENDBRANCH   2   3
BRANCH   1  14
ATOM     12  C   UNL     1      -7.593  12.557  65.872  0.00  0.00    +0.000 A 
ATOM     13  C   UNL     1      -8.650  11.665  65.913  0.00  0.00    +0.000 A 
ATOM     14  C   UNL     1      -8.641  10.533  65.108  0.00  0.00    +0.000 A 
ATOM     15  C   UNL     1      -7.754  10.572  64.039  0.00  0.00    +0.000 A 
ATOM     16  C   UNL     1      -6.545  11.236  64.143  0.00  0.00    +0.000 A 
ATOM     17  C   UNL     1      -6.454  12.145  65.190  0.00  0.00    +0.000 A 
BRANCH  12  19
ATOM     18  C   UNL     1      -8.497  13.807  67.774  0.00  0.00    +0.000 C 
ATOM     19  O   UNL     1      -7.545  13.618  66.755  0.00  0.00    +0.000 OA
ENDBRANCH  12  19
BRANCH  16  20
ATOM     20  O   UNL     1      -5.346  10.685  63.685  0.00  0.00    +0.000 OA
ATOM     21  C   UNL     1      -4.733   9.722  64.538  0.00  0.00    +0.000 C 
ENDBRANCH  16  20
ENDBRANCH   1  14
TORSDOF 5
ENDMDL
MODEL 10
REMARK VINA RESULT:       0.0     24.263     25.510
REMARK  Name = 
REMARK  5 active torsions:
REMARK  status: ('A' for Active; 'I' for Inactive)
REMARK    1  A    between atoms: O_2  and  C_3
REMARK    2  A    between atoms: C_5  and  C_6
REMARK    3  A    between atoms: C_7  and  C_8
REMARK    4  A    between atoms: C_13  and  O_14
REMARK    5  A    between atoms: C_18  and  O_19
REMARK                            x       y       z     vdW  Elec       q    Type
REMARK                         _______ _______ _______ _____ _____    ______ ____
ROOT
ATOM      1  C   UNL     1      -7.522  31.604  66.976  0.00  0.00    +0.000 C 
ATOM      2  C   UNL     1      -6.365  31.017  67.160  0.00  0.00    +0.000 C 
ENDROOT
BRANCH   2   3
ATOM      3  C   UNL     1      -5.133  31.715  67.507  0.00  0.00    +0.000 A 
ATOM      4  C   UNL     1      -3.882  31.220  67.162  0.00  0.00    +0.000 A 
ATOM      5  C   UNL     1      -2.810  31.403  68.027  0.00  0.00    +0.000 A 
ATOM      6  C   UNL     1      -2.880  32.350  69.039  0.00  0.00    +0.000 A 
ATOM      7  O   UNL     1      -2.078  32.303  70.158  0.00  0.00    +0.000 OA
ATOM      8  C   UNL     1      -3.980  33.199  69.017  0.00  0.00    +0.000 A 
ATOM      9  C   UNL     1      -5.117  32.862  68.291  0.00  0.00    +0.000 A 
BRANCH   8  10
ATOM     10  O   UNL     1      -3.848  34.447  69.628  0.00  0.00    +0.000 OA
ATOM     11  C   UNL     1      -3.191  35.475  68.890  0.00  0.00    +0.000 C 
ENDBRANCH   8  10
ENDBRANCH   2   3
BRANCH   1  14
ATOM     12  C   UNL     1      -9.914  29.914  69.248  0.00  0.00    +0.000 A 
ATOM     13  C   UNL     1      -8.848  30.661  68.780  0.00  0.00    +0.000 A 
ATOM     14  C   UNL     1      -8.794  31.046  67.447  0.00  0.00    +0.000 A 
ATOM     15  C   UNL     1      -9.621  30.330  66.590  0.00  0.00    +0.000 A 
ATOM     16  C   UNL     1     -10.845  29.849  67.020  0.00  0.00    +0.000 A 
ATOM     17  C   UNL     1     -11.008  29.788  68.399  0.00  0.00    +0.000 A 
BRANCH  12  19
ATOM     18  C   UNL     1      -9.136  30.140  71.559  0.00  0.00    +0.000 C 
ATOM     19  O   UNL     1     -10.027  29.632  70.596  0.00  0.00    +0.000 OA
ENDBRANCH  12  19
BRANCH  16  20
ATOM     20  O   UNL     1     -12.008  29.968  66.256  0.00  0.00    +0.000 OA
ATOM     21  C   UNL     1     -12.653  31.239  66.293  0.00  0.00    +0.000 C 
ENDBRANCH  16  20
ENDBRANCH   1  14
TORSDOF 5
ENDMDL
