REMARK  Name = 
REMARK  5 active torsions:
REMARK  status: ('A' for Active; 'I' for Inactive)
REMARK    1  A    between atoms: O_2  and  C_3
REMARK    2  A    between atoms: C_5  and  C_6
REMARK    3  A    between atoms: C_7  and  C_8
REMARK    4  A    between atoms: C_11  and  O_12
REMARK    5  A    between atoms: C_18  and  O_19
REMARK                            x       y       z     vdW  Elec       q    Type
REMARK                         _______ _______ _______ _____ _____    ______ ____
ROOT
ATOM      1  C   UNL     1      -0.336  -1.280  -1.208  0.00  0.00    +0.000 C 
ATOM      2  C   UNL     1       0.439  -0.412  -0.603  0.00  0.00    +0.000 C 
ENDROOT
BRANCH   2   3
ATOM      3  C   UNL     1       1.776  -0.740  -0.088  0.00  0.00    +0.000 A 
ATOM      4  C   UNL     1       2.093  -0.470   1.239  0.00  0.00    +0.000 A 
ATOM      5  C   UNL     1       3.271   0.181   1.589  0.00  0.00    +0.000 A 
ATOM      6  C   UNL     1       4.264   0.379   0.635  0.00  0.00    +0.000 A 
ATOM      7  C   UNL     1       4.093  -0.276  -0.576  0.00  0.00    +0.000 A 
ATOM      8  O   UNL     1       5.229  -0.415  -1.377  0.00  0.00    +0.000 OA
ATOM      9  C   UNL     1       2.877  -0.845  -0.931  0.00  0.00    +0.000 A 
BRANCH   6  10
ATOM     10  O   UNL     1       5.072   1.520   0.668  0.00  0.00    +0.000 OA
ATOM     11  C   UNL     1       4.658   2.706   1.325  0.00  0.00    +0.000 C 
ENDBRANCH   6  10
ENDBRANCH   2   3
BRANCH   1  14
ATOM     12  C   UNL     1      -3.393  -0.922   0.835  0.00  0.00    +0.000 A 
ATOM     13  C   UNL     1      -2.357  -1.595   0.219  0.00  0.00    +0.000 A 
ATOM     14  C   UNL     1      -1.781  -1.160  -0.969  0.00  0.00    +0.000 A 
ATOM     15  C   UNL     1      -2.489  -0.180  -1.652  0.00  0.00    +0.000 A 
ATOM     16  C   UNL     1      -3.738   0.254  -1.254  0.00  0.00    +0.000 A 
ATOM     17  C   UNL     1      -4.192  -0.159  -0.008  0.00  0.00    +0.000 A 
BRANCH  12  19
ATOM     18  C   UNL     1      -3.194   0.364   2.827  0.00  0.00    +0.000 C 
ATOM     19  O   UNL     1      -3.546  -0.880   2.225  0.00  0.00    +0.000 OA
ENDBRANCH  12  19
BRANCH  16  20
ATOM     20  O   UNL     1      -4.314   1.381  -1.846  0.00  0.00    +0.000 OA
ATOM     21  C   UNL     1      -4.432   2.550  -1.052  0.00  0.00    +0.000 C 
ENDBRANCH  16  20
ENDBRANCH   1  14
TORSDOF 5
