MODEL 1
REMARK VINA RESULT:      -0.0      0.000      0.000
REMARK  Name = 
REMARK  5 active torsions:
REMARK  status: ('A' for Active; 'I' for Inactive)
REMARK    1  A    between atoms: O_2  and  C_3
REMARK    2  A    between atoms: C_5  and  C_6
REMARK    3  A    between atoms: C_7  and  C_8
REMARK    4  A    between atoms: C_11  and  O_12
REMARK    5  A    between atoms: C_18  and  O_19
REMARK                            x       y       z     vdW  Elec       q    Type
REMARK                         _______ _______ _______ _____ _____    ______ ____
ROOT
ATOM      1  C   UNL     1      -6.520  16.039  53.331  0.00  0.00    +0.000 C 
ATOM      2  C   UNL     1      -7.264  17.046  53.724  0.00  0.00    +0.000 C 
ENDROOT
BRANCH   2   3
ATOM      3  C   UNL     1      -6.897  17.942  54.830  0.00  0.00    +0.000 A 
ATOM      4  C   UNL     1      -5.676  17.781  55.476  0.00  0.00    +0.000 A 
ATOM      5  C   UNL     1      -5.584  17.751  56.863  0.00  0.00    +0.000 A 
ATOM      6  C   UNL     1      -6.683  18.105  57.639  0.00  0.00    +0.000 A 
ATOM      7  C   UNL     1      -7.757  18.667  56.964  0.00  0.00    +0.000 A 
ATOM      8  O   UNL     1      -8.679  19.375  57.738  0.00  0.00    +0.000 OA
ATOM      9  C   UNL     1      -7.860  18.606  55.581  0.00  0.00    +0.000 A 
BRANCH   6  10
ATOM     10  O   UNL     1      -6.919  17.487  58.871  0.00  0.00    +0.000 OA
ATOM     11  C   UNL     1      -7.514  16.204  58.958  0.00  0.00    +0.000 C 
ENDBRANCH   6  10
ENDBRANCH   2   3
BRANCH   1  14
ATOM     12  C   UNL     1      -7.369  12.444  53.286  0.00  0.00    +0.000 A 
ATOM     13  C   UNL     1      -6.644  13.575  52.967  0.00  0.00    +0.000 A 
ATOM     14  C   UNL     1      -7.224  14.834  52.870  0.00  0.00    +0.000 A 
ATOM     15  C   UNL     1      -8.612  14.851  52.825  0.00  0.00    +0.000 A 
ATOM     16  C   UNL     1      -9.371  13.699  52.758  0.00  0.00    +0.000 A 
ATOM     17  C   UNL     1      -8.719  12.490  52.961  0.00  0.00    +0.000 A 
BRANCH  12  19
ATOM     18  C   UNL     1      -7.610  10.973  55.141  0.00  0.00    +0.000 C 
ATOM     19  O   UNL     1      -6.828  11.383  54.021  0.00  0.00    +0.000 OA
ENDBRANCH  12  19
BRANCH  16  20
ATOM     20  O   UNL     1     -10.757  13.759  52.927  0.00  0.00    +0.000 OA
ATOM     21  C   UNL     1     -11.313  13.063  54.030  0.00  0.00    +0.000 C 
ENDBRANCH  16  20
ENDBRANCH   1  14
TORSDOF 5
ENDMDL
MODEL 2
REMARK VINA RESULT:      -0.0      1.955      2.259
REMARK  Name = 
REMARK  5 active torsions:
REMARK  status: ('A' for Active; 'I' for Inactive)
REMARK    1  A    between atoms: O_2  and  C_3
REMARK    2  A    between atoms: C_5  and  C_6
REMARK    3  A    between atoms: C_7  and  C_8
REMARK    4  A    between atoms: C_11  and  O_12
REMARK    5  A    between atoms: C_18  and  O_19
REMARK                            x       y       z     vdW  Elec       q    Type
REMARK                         _______ _______ _______ _____ _____    ______ ____
ROOT
ATOM      1  C   UNL     1      -7.393  15.166  54.860  0.00  0.00    +0.000 C 
ATOM      2  C   UNL     1      -8.123  16.243  54.695  0.00  0.00    +0.000 C 
ENDROOT
BRANCH   2   3
ATOM      3  C   UNL     1      -7.851  17.518  55.373  0.00  0.00    +0.000 A 
ATOM      4  C   UNL     1      -6.733  17.643  56.191  0.00  0.00    +0.000 A 
ATOM      5  C   UNL     1      -6.820  18.193  57.465  0.00  0.00    +0.000 A 
ATOM      6  C   UNL     1      -7.988  18.835  57.866  0.00  0.00    +0.000 A 
ATOM      7  C   UNL     1      -8.934  19.063  56.877  0.00  0.00    +0.000 A 
ATOM      8  O   UNL     1      -9.906  20.027  57.153  0.00  0.00    +0.000 OA
ATOM      9  C   UNL     1      -8.863  18.433  55.642  0.00  0.00    +0.000 A 
BRANCH   6  10
ATOM     10  O   UNL     1      -8.413  18.785  59.197  0.00  0.00    +0.000 OA
ATOM     11  C   UNL     1      -9.085  17.652  59.721  0.00  0.00    +0.000 C 
ENDBRANCH   6  10
ENDBRANCH   2   3
BRANCH   1  14
ATOM     12  C   UNL     1      -8.428  11.875  56.182  0.00  0.00    +0.000 A 
ATOM     13  C   UNL     1      -7.607  12.773  55.530  0.00  0.00    +0.000 A 
ATOM     14  C   UNL     1      -8.099  13.877  54.842  0.00  0.00    +0.000 A 
ATOM     15  C   UNL     1      -9.466  13.870  54.602  0.00  0.00    +0.000 A 
ATOM     16  C   UNL     1     -10.274  12.793  54.911  0.00  0.00    +0.000 A 
ATOM     17  C   UNL     1      -9.721  11.779  55.682  0.00  0.00    +0.000 A 
BRANCH  12  19
ATOM     18  C   UNL     1      -8.986  11.308  58.425  0.00  0.00    +0.000 C 
ATOM     19  O   UNL     1      -8.046  11.217  57.356  0.00  0.00    +0.000 OA
ENDBRANCH  12  19
BRANCH  16  20
ATOM     20  O   UNL     1     -11.665  12.914  54.846  0.00  0.00    +0.000 OA
ATOM     21  C   UNL     1     -12.395  12.739  56.049  0.00  0.00    +0.000 C 
ENDBRANCH  16  20
ENDBRANCH   1  14
TORSDOF 5
ENDMDL
MODEL 3
REMARK VINA RESULT:      -0.0     10.450     13.298
REMARK  Name = 
REMARK  5 active torsions:
REMARK  status: ('A' for Active; 'I' for Inactive)
REMARK    1  A    between atoms: O_2  and  C_3
REMARK    2  A    between atoms: C_5  and  C_6
REMARK    3  A    between atoms: C_7  and  C_8
REMARK    4  A    between atoms: C_11  and  O_12
REMARK    5  A    between atoms: C_18  and  O_19
REMARK                            x       y       z     vdW  Elec       q    Type
REMARK                         _______ _______ _______ _____ _____    ______ ____
ROOT
ATOM      1  C   UNL     1      -9.671  24.118  62.312  0.00  0.00    +0.000 C 
ATOM      2  C   UNL     1      -9.001  24.344  63.416  0.00  0.00    +0.000 C 
ENDROOT
BRANCH   2   3
ATOM      3  C   UNL     1      -9.460  25.259  64.471  0.00  0.00    +0.000 A 
ATOM      4  C   UNL     1     -10.700  25.880  64.358  0.00  0.00    +0.000 A 
ATOM      5  C   UNL     1     -10.852  27.246  64.568  0.00  0.00    +0.000 A 
ATOM      6  C   UNL     1      -9.808  27.985  65.114  0.00  0.00    +0.000 A 
ATOM      7  C   UNL     1      -8.733  27.259  65.608  0.00  0.00    +0.000 A 
ATOM      8  O   UNL     1      -7.882  27.926  66.493  0.00  0.00    +0.000 OA
ATOM      9  C   UNL     1      -8.565  25.913  65.310  0.00  0.00    +0.000 A 
BRANCH   6  10
ATOM     10  O   UNL     1      -9.597  29.315  64.738  0.00  0.00    +0.000 OA
ATOM     11  C   UNL     1      -8.954  29.651  63.520  0.00  0.00    +0.000 C 
ENDBRANCH   6  10
ENDBRANCH   2   3
BRANCH   1  14
ATOM     12  C   UNL     1      -8.631  24.744  58.823  0.00  0.00    +0.000 A 
ATOM     13  C   UNL     1      -9.401  24.205  59.834  0.00  0.00    +0.000 A 
ATOM     14  C   UNL     1      -8.885  23.902  61.089  0.00  0.00    +0.000 A 
ATOM     15  C   UNL     1      -7.500  23.901  61.181  0.00  0.00    +0.000 A 
ATOM     16  C   UNL     1      -6.678  24.066  60.084  0.00  0.00    +0.000 A 
ATOM     17  C   UNL     1      -7.273  24.460  58.892  0.00  0.00    +0.000 A 
BRANCH  12  19
ATOM     18  C   UNL     1      -8.358  26.811  57.676  0.00  0.00    +0.000 C 
ATOM     19  O   UNL     1      -9.145  25.639  57.878  0.00  0.00    +0.000 OA
ENDBRANCH  12  19
BRANCH  16  20
ATOM     20  O   UNL     1      -5.306  24.267  60.255  0.00  0.00    +0.000 OA
ATOM     21  C   UNL     1      -4.750  25.468  59.745  0.00  0.00    +0.000 C 
ENDBRANCH  16  20
ENDBRANCH   1  14
TORSDOF 5
ENDMDL
MODEL 4
REMARK VINA RESULT:      -0.0     10.785     13.554
REMARK  Name = 
REMARK  5 active torsions:
REMARK  status: ('A' for Active; 'I' for Inactive)
REMARK    1  A    between atoms: O_2  and  C_3
REMARK    2  A    between atoms: C_5  and  C_6
REMARK    3  A    between atoms: C_7  and  C_8
REMARK    4  A    between atoms: C_11  and  O_12
REMARK    5  A    between atoms: C_18  and  O_19
REMARK                            x       y       z     vdW  Elec       q    Type
REMARK                         _______ _______ _______ _____ _____    ______ ____
ROOT
ATOM      1  C   UNL     1       1.876   7.568  59.853  0.00  0.00    +0.000 C 
ATOM      2  C   UNL     1       0.953   8.174  59.145  0.00  0.00    +0.000 C 
ENDROOT
BRANCH   2   3
ATOM      3  C   UNL     1      -0.313   8.662  59.711  0.00  0.00    +0.000 A 
ATOM      4  C   UNL     1      -0.575   8.497  61.067  0.00  0.00    +0.000 A 
ATOM      5  C   UNL     1      -1.788   7.987  61.518  0.00  0.00    +0.000 A 
ATOM      6  C   UNL     1      -2.850   7.839  60.632  0.00  0.00    +0.000 A 
ATOM      7  C   UNL     1      -2.689   8.408  59.377  0.00  0.00    +0.000 A 
ATOM      8  O   UNL     1      -3.851   8.617  58.632  0.00  0.00    +0.000 OA
ATOM      9  C   UNL     1      -1.446   8.832  58.924  0.00  0.00    +0.000 A 
BRANCH   6  10
ATOM     10  O   UNL     1      -3.762   6.789  60.777  0.00  0.00    +0.000 OA
ATOM     11  C   UNL     1      -3.460   5.475  60.336  0.00  0.00    +0.000 C 
ENDBRANCH   6  10
ENDBRANCH   2   3
BRANCH   1  14
ATOM     12  C   UNL     1       3.184   4.139  59.431  0.00  0.00    +0.000 A 
ATOM     13  C   UNL     1       3.165   5.434  59.909  0.00  0.00    +0.000 A 
ATOM     14  C   UNL     1       2.624   6.493  59.188  0.00  0.00    +0.000 A 
ATOM     15  C   UNL     1       2.366   6.233  57.849  0.00  0.00    +0.000 A 
ATOM     16  C   UNL     1       2.729   5.051  57.233  0.00  0.00    +0.000 A 
ATOM     17  C   UNL     1       3.172   4.015  58.047  0.00  0.00    +0.000 A 
BRANCH  12  19
ATOM     18  C   UNL     1       2.079   2.077  59.866  0.00  0.00    +0.000 C 
ATOM     19  O   UNL     1       3.068   3.023  60.267  0.00  0.00    +0.000 OA
ENDBRANCH  12  19
BRANCH  16  20
ATOM     20  O   UNL     1       2.264   4.753  55.950  0.00  0.00    +0.000 OA
ATOM     21  C   UNL     1       1.476   3.584  55.793  0.00  0.00    +0.000 C 
ENDBRANCH  16  20
ENDBRANCH   1  14
TORSDOF 5
ENDMDL
MODEL 5
REMARK VINA RESULT:      -0.0     22.364     24.295
REMARK  Name = 
REMARK  5 active torsions:
REMARK  status: ('A' for Active; 'I' for Inactive)
REMARK    1  A    between atoms: O_2  and  C_3
REMARK    2  A    between atoms: C_5  and  C_6
REMARK    3  A    between atoms: C_7  and  C_8
REMARK    4  A    between atoms: C_11  and  O_12
REMARK    5  A    between atoms: C_18  and  O_19
REMARK                            x       y       z     vdW  Elec       q    Type
REMARK                         _______ _______ _______ _____ _____    ______ ____
ROOT
ATOM      1  C   UNL     1      10.315  27.103  50.211  0.00  0.00    +0.000 C 
ATOM      2  C   UNL     1      10.624  25.969  49.630  0.00  0.00    +0.000 C 
ENDROOT
BRANCH   2   3
ATOM      3  C   UNL     1      11.789  25.156  50.005  0.00  0.00    +0.000 A 
ATOM      4  C   UNL     1      12.596  25.550  51.067  0.00  0.00    +0.000 A 
ATOM      5  C   UNL     1      13.982  25.588  50.954  0.00  0.00    +0.000 A 
ATOM      6  C   UNL     1      14.603  25.019  49.847  0.00  0.00    +0.000 A 
ATOM      7  C   UNL     1      13.797  24.261  49.010  0.00  0.00    +0.000 A 
ATOM      8  O   UNL     1      14.449  23.379  48.145  0.00  0.00    +0.000 OA
ATOM      9  C   UNL     1      12.412  24.309  49.094  0.00  0.00    +0.000 A 
BRANCH   6  10
ATOM     10  O   UNL     1      15.777  25.570  49.323  0.00  0.00    +0.000 OA
ATOM     11  C   UNL     1      15.754  26.720  48.493  0.00  0.00    +0.000 C 
ENDBRANCH   6  10
ENDBRANCH   2   3
BRANCH   1  14
ATOM     12  C   UNL     1      10.077  30.464  48.696  0.00  0.00    +0.000 A 
ATOM     13  C   UNL     1       9.886  29.498  49.664  0.00  0.00    +0.000 A 
ATOM     14  C   UNL     1       9.735  28.150  49.360  0.00  0.00    +0.000 A 
ATOM     15  C   UNL     1       9.496  27.863  48.022  0.00  0.00    +0.000 A 
ATOM     16  C   UNL     1       9.300  28.845  47.071  0.00  0.00    +0.000 A 
ATOM     17  C   UNL     1       9.567  30.157  47.440  0.00  0.00    +0.000 A 
BRANCH  12  19
ATOM     18  C   UNL     1      11.879  31.819  47.938  0.00  0.00    +0.000 C 
ATOM     19  O   UNL     1      10.858  31.604  48.910  0.00  0.00    +0.000 OA
ENDBRANCH  12  19
BRANCH  16  20
ATOM     20  O   UNL     1       9.274  28.515  45.713  0.00  0.00    +0.000 OA
ATOM     21  C   UNL     1      10.261  29.097  44.878  0.00  0.00    +0.000 C 
ENDBRANCH  16  20
ENDBRANCH   1  14
TORSDOF 5
ENDMDL
MODEL 6
REMARK VINA RESULT:      -0.0     10.438     12.004
REMARK  Name = 
REMARK  5 active torsions:
REMARK  status: ('A' for Active; 'I' for Inactive)
REMARK    1  A    between atoms: O_2  and  C_3
REMARK    2  A    between atoms: C_5  and  C_6
REMARK    3  A    between atoms: C_7  and  C_8
REMARK    4  A    between atoms: C_11  and  O_12
REMARK    5  A    between atoms: C_18  and  O_19
REMARK                            x       y       z     vdW  Elec       q    Type
REMARK                         _______ _______ _______ _____ _____    ______ ____
ROOT
ATOM      1  C   UNL     1       1.880  17.157  52.299  0.00  0.00    +0.000 C 
ATOM      2  C   UNL     1       2.194  17.130  53.572  0.00  0.00    +0.000 C 
ENDROOT
BRANCH   2   3
ATOM      3  C   UNL     1       3.126  18.079  54.197  0.00  0.00    +0.000 A 
ATOM      4  C   UNL     1       3.665  19.118  53.446  0.00  0.00    +0.000 A 
ATOM      5  C   UNL     1       5.028  19.395  53.459  0.00  0.00    +0.000 A 
ATOM      6  C   UNL     1       5.852  18.781  54.396  0.00  0.00    +0.000 A 
ATOM      7  C   UNL     1       5.216  18.070  55.404  0.00  0.00    +0.000 A 
ATOM      8  O   UNL     1       5.972  17.790  56.544  0.00  0.00    +0.000 OA
ATOM      9  C   UNL     1       3.870  17.737  55.321  0.00  0.00    +0.000 A 
BRANCH   6  10
ATOM     10  O   UNL     1       7.174  18.452  54.081  0.00  0.00    +0.000 OA
ATOM     11  C   UNL     1       7.493  17.294  53.328  0.00  0.00    +0.000 C 
ENDBRANCH   6  10
ENDBRANCH   2   3
BRANCH   1  14
ATOM     12  C   UNL     1       2.406  14.542  49.743  0.00  0.00    +0.000 A 
ATOM     13  C   UNL     1       1.868  15.695  50.278  0.00  0.00    +0.000 A 
ATOM     14  C   UNL     1       1.656  15.861  51.642  0.00  0.00    +0.000 A 
ATOM     15  C   UNL     1       1.745  14.705  52.405  0.00  0.00    +0.000 A 
ATOM     16  C   UNL     1       1.910  13.452  51.848  0.00  0.00    +0.000 A 
ATOM     17  C   UNL     1       2.210  13.389  50.493  0.00  0.00    +0.000 A 
BRANCH  12  19
ATOM     18  C   UNL     1       4.449  13.833  48.750  0.00  0.00    +0.000 C 
ATOM     19  O   UNL     1       3.222  14.547  48.607  0.00  0.00    +0.000 OA
ENDBRANCH  12  19
BRANCH  16  20
ATOM     20  O   UNL     1       2.202  12.353  52.659  0.00  0.00    +0.000 OA
ATOM     21  C   UNL     1       3.405  11.648  52.398  0.00  0.00    +0.000 C 
ENDBRANCH  16  20
ENDBRANCH   1  14
TORSDOF 5
ENDMDL
MODEL 7
REMARK VINA RESULT:      -0.0     23.600     25.176
REMARK  Name = 
REMARK  5 active torsions:
REMARK  status: ('A' for Active; 'I' for Inactive)
REMARK    1  A    between atoms: O_2  and  C_3
REMARK    2  A    between atoms: C_5  and  C_6
REMARK    3  A    between atoms: C_7  and  C_8
REMARK    4  A    between atoms: C_11  and  O_12
REMARK    5  A    between atoms: C_18  and  O_19
REMARK                            x       y       z     vdW  Elec       q    Type
REMARK                         _______ _______ _______ _____ _____    ______ ____
ROOT
ATOM      1  C   UNL     1      16.234  14.910  54.927  0.00  0.00    +0.000 C 
ATOM      2  C   UNL     1      16.200  15.534  56.080  0.00  0.00    +0.000 C 
ENDROOT
BRANCH   2   3
ATOM      3  C   UNL     1      17.267  16.429  56.549  0.00  0.00    +0.000 A 
ATOM      4  C   UNL     1      18.376  16.667  55.743  0.00  0.00    +0.000 A 
ATOM      5  C   UNL     1      19.671  16.583  56.243  0.00  0.00    +0.000 A 
ATOM      6  C   UNL     1      19.880  16.478  57.614  0.00  0.00    +0.000 A 
ATOM      7  C   UNL     1      18.768  16.668  58.422  0.00  0.00    +0.000 A 
ATOM      8  O   UNL     1      19.015  16.957  59.767  0.00  0.00    +0.000 OA
ATOM      9  C   UNL     1      17.480  16.663  57.903  0.00  0.00    +0.000 A 
BRANCH   6  10
ATOM     10  O   UNL     1      20.954  15.740  58.121  0.00  0.00    +0.000 OA
ATOM     11  C   UNL     1      20.921  14.324  58.182  0.00  0.00    +0.000 C 
ENDBRANCH   6  10
ENDBRANCH   2   3
BRANCH   1  14
ATOM     12  C   UNL     1      16.220  11.267  54.315  0.00  0.00    +0.000 A 
ATOM     13  C   UNL     1      16.110  12.603  53.987  0.00  0.00    +0.000 A 
ATOM     14  C   UNL     1      15.652  13.561  54.884  0.00  0.00    +0.000 A 
ATOM     15  C   UNL     1      15.040  13.064  56.027  0.00  0.00    +0.000 A 
ATOM     16  C   UNL     1      14.789  11.719  56.216  0.00  0.00    +0.000 A 
ATOM     17  C   UNL     1      15.367  10.828  55.320  0.00  0.00    +0.000 A 
BRANCH  12  19
ATOM     18  C   UNL     1      17.887   9.626  54.752  0.00  0.00    +0.000 C 
ATOM     19  O   UNL     1      17.219  10.439  53.790  0.00  0.00    +0.000 OA
ENDBRANCH  12  19
BRANCH  16  20
ATOM     20  O   UNL     1      14.367  11.249  57.462  0.00  0.00    +0.000 OA
ATOM     21  C   UNL     1      15.160  10.257  58.091  0.00  0.00    +0.000 C 
ENDBRANCH  16  20
ENDBRANCH   1  14
TORSDOF 5
ENDMDL
MODEL 8
REMARK VINA RESULT:      -0.0     18.950     20.764
REMARK  Name = 
REMARK  5 active torsions:
REMARK  status: ('A' for Active; 'I' for Inactive)
REMARK    1  A    between atoms: O_2  and  C_3
REMARK    2  A    between atoms: C_5  and  C_6
REMARK    3  A    between atoms: C_7  and  C_8
REMARK    4  A    between atoms: C_11  and  O_12
REMARK    5  A    between atoms: C_18  and  O_19
REMARK                            x       y       z     vdW  Elec       q    Type
REMARK                         _______ _______ _______ _____ _____    ______ ____
ROOT
ATOM      1  C   UNL     1       7.627  25.327  56.704  0.00  0.00    +0.000 C 
ATOM      2  C   UNL     1       8.587  24.729  57.368  0.00  0.00    +0.000 C 
ENDROOT
BRANCH   2   3
ATOM      3  C   UNL     1       9.055  25.169  58.689  0.00  0.00    +0.000 A 
ATOM      4  C   UNL     1       8.438  26.244  59.320  0.00  0.00    +0.000 A 
ATOM      5  C   UNL     1       9.175  27.283  59.879  0.00  0.00    +0.000 A 
ATOM      6  C   UNL     1      10.554  27.159  60.015  0.00  0.00    +0.000 A 
ATOM      7  C   UNL     1      11.088  25.904  59.763  0.00  0.00    +0.000 A 
ATOM      8  O   UNL     1      12.368  25.657  60.263  0.00  0.00    +0.000 OA
ATOM      9  C   UNL     1      10.350  24.913  59.127  0.00  0.00    +0.000 A 
BRANCH   6  10
ATOM     10  O   UNL     1      11.389  28.275  59.894  0.00  0.00    +0.000 OA
ATOM     11  C   UNL     1      11.747  28.803  58.628  0.00  0.00    +0.000 C 
ENDBRANCH   6  10
ENDBRANCH   2   3
BRANCH   1  14
ATOM     12  C   UNL     1       7.803  26.952  53.391  0.00  0.00    +0.000 A 
ATOM     13  C   UNL     1       7.187  26.398  54.495  0.00  0.00    +0.000 A 
ATOM     14  C   UNL     1       7.762  25.376  55.241  0.00  0.00    +0.000 A 
ATOM     15  C   UNL     1       8.850  24.746  54.652  0.00  0.00    +0.000 A 
ATOM     16  C   UNL     1       9.267  25.022  53.365  0.00  0.00    +0.000 A 
ATOM     17  C   UNL     1       8.702  26.122  52.732  0.00  0.00    +0.000 A 
BRANCH  12  19
ATOM     18  C   UNL     1       8.885  28.996  52.831  0.00  0.00    +0.000 C 
ATOM     19  O   UNL     1       7.659  28.299  53.041  0.00  0.00    +0.000 OA
ENDBRANCH  12  19
BRANCH  16  20
ATOM     20  O   UNL     1      10.483  24.521  52.895  0.00  0.00    +0.000 OA
ATOM     21  C   UNL     1      11.457  25.458  52.466  0.00  0.00    +0.000 C 
ENDBRANCH  16  20
ENDBRANCH   1  14
TORSDOF 5
ENDMDL
MODEL 9
REMARK VINA RESULT:      -0.0     24.319     26.701
REMARK  Name = 
REMARK  5 active torsions:
REMARK  status: ('A' for Active; 'I' for Inactive)
REMARK    1  A    between atoms: O_2  and  C_3
REMARK    2  A    between atoms: C_5  and  C_6
REMARK    3  A    between atoms: C_7  and  C_8
REMARK    4  A    between atoms: C_11  and  O_12
REMARK    5  A    between atoms: C_18  and  O_19
REMARK                            x       y       z     vdW  Elec       q    Type
REMARK                         _______ _______ _______ _____ _____    ______ ____
ROOT
ATOM      1  C   UNL     1      11.811  27.934  62.425  0.00  0.00    +0.000 C 
ATOM      2  C   UNL     1      11.603  28.251  61.169  0.00  0.00    +0.000 C 
ENDROOT
BRANCH   2   3
ATOM      3  C   UNL     1      12.178  27.508  60.039  0.00  0.00    +0.000 A 
ATOM      4  C   UNL     1      12.995  26.408  60.277  0.00  0.00    +0.000 A 
ATOM      5  C   UNL     1      14.220  26.257  59.635  0.00  0.00    +0.000 A 
ATOM      6  C   UNL     1      14.554  27.092  58.574  0.00  0.00    +0.000 A 
ATOM      7  C   UNL     1      13.540  27.905  58.087  0.00  0.00    +0.000 A 
ATOM      8  O   UNL     1      13.727  28.440  56.811  0.00  0.00    +0.000 OA
ATOM      9  C   UNL     1      12.361  28.100  58.794  0.00  0.00    +0.000 A 
BRANCH   6  10
ATOM     10  O   UNL     1      15.880  27.477  58.356  0.00  0.00    +0.000 OA
ATOM     11  C   UNL     1      16.493  28.502  59.120  0.00  0.00    +0.000 C 
ENDBRANCH   6  10
ENDBRANCH   2   3
BRANCH   1  14
ATOM     12  C   UNL     1      13.422  29.991  65.036  0.00  0.00    +0.000 A 
ATOM     13  C   UNL     1      12.684  28.938  64.534  0.00  0.00    +0.000 A 
ATOM     14  C   UNL     1      11.914  29.044  63.382  0.00  0.00    +0.000 A 
ATOM     15  C   UNL     1      11.696  30.338  62.926  0.00  0.00    +0.000 A 
ATOM     16  C   UNL     1      12.108  31.456  63.625  0.00  0.00    +0.000 A 
ATOM     17  C   UNL     1      12.953  31.257  64.709  0.00  0.00    +0.000 A 
BRANCH  12  19
ATOM     18  C   UNL     1      15.700  30.649  65.240  0.00  0.00    +0.000 C 
ATOM     19  O   UNL     1      14.641  29.811  65.699  0.00  0.00    +0.000 OA
ENDBRANCH  12  19
BRANCH  16  20
ATOM     20  O   UNL     1      12.054  32.718  63.029  0.00  0.00    +0.000 OA
ATOM     21  C   UNL     1      13.266  33.449  62.932  0.00  0.00    +0.000 C 
ENDBRANCH  16  20
ENDBRANCH   1  14
TORSDOF 5
ENDMDL
MODEL 10
REMARK VINA RESULT:      -0.0      8.190     12.002
REMARK  Name = 
REMARK  5 active torsions:
REMARK  status: ('A' for Active; 'I' for Inactive)
REMARK    1  A    between atoms: O_2  and  C_3
REMARK    2  A    between atoms: C_5  and  C_6
REMARK    3  A    between atoms: C_7  and  C_8
REMARK    4  A    between atoms: C_11  and  O_12
REMARK    5  A    between atoms: C_18  and  O_19
REMARK                            x       y       z     vdW  Elec       q    Type
REMARK                         _______ _______ _______ _____ _____    ______ ____
ROOT
ATOM      1  C   UNL     1      -2.129   6.977  50.218  0.00  0.00    +0.000 C 
ATOM      2  C   UNL     1      -2.770   5.867  49.940  0.00  0.00    +0.000 C 
ENDROOT
BRANCH   2   3
ATOM      3  C   UNL     1      -3.948   5.810  49.063  0.00  0.00    +0.000 A 
ATOM      4  C   UNL     1      -4.431   6.974  48.474  0.00  0.00    +0.000 A 
ATOM      5  C   UNL     1      -5.781   7.303  48.509  0.00  0.00    +0.000 A 
ATOM      6  C   UNL     1      -6.713   6.365  48.942  0.00  0.00    +0.000 A 
ATOM      7  C   UNL     1      -6.245   5.072  49.124  0.00  0.00    +0.000 A 
ATOM      8  O   UNL     1      -7.206   4.059  49.168  0.00  0.00    +0.000 OA
ATOM      9  C   UNL     1      -4.886   4.788  49.166  0.00  0.00    +0.000 A 
BRANCH   6  10
ATOM     10  O   UNL     1      -7.861   6.762  49.634  0.00  0.00    +0.000 OA
ATOM     11  C   UNL     1      -7.819   7.110  51.008  0.00  0.00    +0.000 C 
ENDBRANCH   6  10
ENDBRANCH   2   3
BRANCH   1  14
ATOM     12  C   UNL     1      -1.647   8.545  53.528  0.00  0.00    +0.000 A 
ATOM     13  C   UNL     1      -1.420   8.342  52.181  0.00  0.00    +0.000 A 
ATOM     14  C   UNL     1      -1.575   7.101  51.574  0.00  0.00    +0.000 A 
ATOM     15  C   UNL     1      -1.687   6.022  52.440  0.00  0.00    +0.000 A 
ATOM     16  C   UNL     1      -1.536   6.142  53.807  0.00  0.00    +0.000 A 
ATOM     17  C   UNL     1      -1.484   7.426  54.335  0.00  0.00    +0.000 A 
BRANCH  12  19
ATOM     18  C   UNL     1      -3.288   9.605  54.886  0.00  0.00    +0.000 C 
ATOM     19  O   UNL     1      -2.152   9.747  54.036  0.00  0.00    +0.000 OA
ENDBRANCH  12  19
BRANCH  16  20
ATOM     20  O   UNL     1      -1.864   5.076  54.649  0.00  0.00    +0.000 OA
ATOM     21  C   UNL     1      -2.886   5.290  55.609  0.00  0.00    +0.000 C 
ENDBRANCH  16  20
ENDBRANCH   1  14
TORSDOF 5
ENDMDL
