REMARK  Name = 
REMARK  6 active torsions:
REMARK  status: ('A' for Active; 'I' for Inactive)
REMARK    1  A    between atoms: O_2  and  C_3
REMARK    2  A    between atoms: C_6  and  C_7
REMARK    3  A    between atoms: C_8  and  C_9
REMARK    4  A    between atoms: C_11  and  O_12
REMARK    5  A    between atoms: C_14  and  O_15
REMARK    6  A    between atoms: C_17  and  O_18
REMARK                            x       y       z     vdW  Elec       q    Type
REMARK                         _______ _______ _______ _____ _____    ______ ____
ROOT
ATOM      1  C   UNL     1       0.801  -0.210   2.088  0.00  0.00    +0.000 C 
ATOM      2  C   UNL     1      -0.076  -0.956   1.468  0.00  0.00    +0.000 C 
ENDROOT
BRANCH   1   6
ATOM      3  C   UNL     1       4.289  -0.110  -0.217  0.00  0.00    +0.000 A 
ATOM      4  C   UNL     1       4.187  -1.078   0.774  0.00  0.00    +0.000 A 
ATOM      5  C   UNL     1       3.073  -1.130   1.603  0.00  0.00    +0.000 A 
ATOM      6  C   UNL     1       2.203  -0.073   1.669  0.00  0.00    +0.000 A 
ATOM      7  C   UNL     1       2.490   1.019   0.858  0.00  0.00    +0.000 A 
ATOM      8  O   UNL     1       1.714   2.158   1.076  0.00  0.00    +0.000 OA
ATOM      9  C   UNL     1       3.424   0.974  -0.155  0.00  0.00    +0.000 A 
ATOM     10  O   UNL     1       3.629   2.069  -0.986  0.00  0.00    +0.000 OA
BRANCH   3  12
ATOM     11  C   UNL     1       6.368  -1.067  -0.967  0.00  0.00    +0.000 C 
ATOM     12  O   UNL     1       5.544   0.070  -0.782  0.00  0.00    +0.000 OA
ENDBRANCH   3  12
ENDBRANCH   1   6
BRANCH   2  13
ATOM     13  C   UNL     1      -1.406  -0.544   1.069  0.00  0.00    +0.000 A 
ATOM     14  C   UNL     1      -2.267  -1.524   0.587  0.00  0.00    +0.000 A 
ATOM     15  C   UNL     1      -3.182  -1.245  -0.421  0.00  0.00    +0.000 A 
ATOM     16  C   UNL     1      -3.453   0.064  -0.765  0.00  0.00    +0.000 A 
ATOM     17  C   UNL     1      -2.516   1.026  -0.410  0.00  0.00    +0.000 A 
ATOM     18  C   UNL     1      -1.737   0.755   0.705  0.00  0.00    +0.000 A 
BRANCH  15  19
ATOM     19  O   UNL     1      -3.978  -2.246  -0.957  0.00  0.00    +0.000 OA
ATOM     20  C   UNL     1      -5.377  -2.271  -0.704  0.00  0.00    +0.000 C 
ENDBRANCH  15  19
BRANCH  16  21
ATOM     21  O   UNL     1      -4.618   0.447  -1.423  0.00  0.00    +0.000 OA
ATOM     22  C   UNL     1      -5.402   1.533  -0.955  0.00  0.00    +0.000 C 
ENDBRANCH  16  21
BRANCH  17  23
ATOM     23  O   UNL     1      -2.412   2.196  -1.147  0.00  0.00    +0.000 OA
ATOM     24  C   UNL     1      -1.299   2.420  -2.008  0.00  0.00    +0.000 C 
ENDBRANCH  17  23
ENDBRANCH   2  13
TORSDOF 6
