REMARK  Name = 
REMARK  6 active torsions:
REMARK  status: ('A' for Active; 'I' for Inactive)
REMARK    1  A    between atoms: O_2  and  C_3
REMARK    2  A    between atoms: C_6  and  C_7
REMARK    3  A    between atoms: C_8  and  C_9
REMARK    4  A    between atoms: C_11  and  O_12
REMARK    5  A    between atoms: C_14  and  O_15
REMARK    6  A    between atoms: C_17  and  O_18
REMARK                            x       y       z     vdW  Elec       q    Type
REMARK                         _______ _______ _______ _____ _____    ______ ____
ROOT
ATOM      1  C   UNL     1      -1.413  -0.852   0.818  0.00  0.00    +0.000 A 
ATOM      2  C   UNL     1      -1.534   0.520   1.012  0.00  0.00    +0.000 A 
ATOM      3  C   UNL     1      -2.470   1.282   0.340  0.00  0.00    +0.000 A 
ATOM      4  C   UNL     1      -3.590   0.616  -0.141  0.00  0.00    +0.000 A 
ATOM      5  C   UNL     1      -3.673  -0.758  -0.066  0.00  0.00    +0.000 A 
ATOM      6  C   UNL     1      -2.563  -1.468   0.339  0.00  0.00    +0.000 A 
ENDROOT
BRANCH   1   8
ATOM      7  C   UNL     1       0.748  -1.511  -0.144  0.00  0.00    +0.000 C 
ATOM      8  C   UNL     1      -0.116  -1.536   0.840  0.00  0.00    +0.000 C 
BRANCH   7  12
ATOM      9  C   UNL     1       4.771  -0.154   0.059  0.00  0.00    +0.000 A 
ATOM     10  C   UNL     1       4.421  -1.399   0.543  0.00  0.00    +0.000 A 
ATOM     11  C   UNL     1       3.098  -1.812   0.652  0.00  0.00    +0.000 A 
ATOM     12  C   UNL     1       2.135  -1.115  -0.056  0.00  0.00    +0.000 A 
ATOM     13  C   UNL     1       2.446   0.197  -0.389  0.00  0.00    +0.000 A 
ATOM     14  C   UNL     1       3.733   0.660  -0.337  0.00  0.00    +0.000 A 
ATOM     15  O   UNL     1       4.026   1.843  -1.008  0.00  0.00    +0.000 OA
BRANCH   9  17
ATOM     16  C   UNL     1       7.005  -0.284   1.035  0.00  0.00    +0.000 C 
ATOM     17  O   UNL     1       6.045   0.392   0.238  0.00  0.00    +0.000 OA
ENDBRANCH   9  17
ENDBRANCH   7  12
ENDBRANCH   1   8
BRANCH   3  18
ATOM     18  O   UNL     1      -2.213   2.579  -0.113  0.00  0.00    +0.000 OA
ATOM     19  C   UNL     1      -1.156   2.786  -1.047  0.00  0.00    +0.000 C 
ENDBRANCH   3  18
BRANCH   4  20
ATOM     20  O   UNL     1      -4.723   1.355  -0.473  0.00  0.00    +0.000 OA
ATOM     21  C   UNL     1      -4.885   2.691  -0.052  0.00  0.00    +0.000 C 
ENDBRANCH   4  20
BRANCH   5  22
ATOM     22  O   UNL     1      -4.909  -1.349  -0.311  0.00  0.00    +0.000 OA
ATOM     23  C   UNL     1      -5.184  -2.682   0.037  0.00  0.00    +0.000 C 
ENDBRANCH   5  22
TORSDOF 6
