REMARK  Name = 
REMARK  5 active torsions:
REMARK  status: ('A' for Active; 'I' for Inactive)
REMARK    1  A    between atoms: O_2  and  C_3
REMARK    2  A    between atoms: C_5  and  C_6
REMARK    3  A    between atoms: C_7  and  C_8
REMARK    4  A    between atoms: C_16  and  O_17
REMARK    5  A    between atoms: C_19  and  O_20
REMARK                            x       y       z     vdW  Elec       q    Type
REMARK                         _______ _______ _______ _____ _____    ______ ____
ROOT
ATOM      1  C   UNL     1      -2.611   1.049   0.017  0.00  0.00    +0.000 A 
ATOM      2  C   UNL     1      -1.254   0.930  -0.144  0.00  0.00    +0.000 A 
ATOM      3  C   UNL     1      -0.564  -0.249   0.110  0.00  0.00    +0.000 A 
ATOM      4  C   UNL     1      -1.311  -1.311   0.581  0.00  0.00    +0.000 A 
ATOM      5  C   UNL     1      -2.684  -1.228   0.778  0.00  0.00    +0.000 A 
ATOM      6  C   UNL     1      -3.327  -0.080   0.345  0.00  0.00    +0.000 A 
ENDROOT
BRANCH   1   8
ATOM      7  C   UNL     1      -3.162   3.329  -0.750  0.00  0.00    +0.000 C 
ATOM      8  O   UNL     1      -3.230   2.287   0.205  0.00  0.00    +0.000 OA
ENDBRANCH   1   8
BRANCH   3   9
ATOM      9  C   UNL     1       0.671  -0.434  -0.662  0.00  0.00    +0.000 C 
ATOM     10  C   UNL     1       1.748  -0.994  -0.169  0.00  0.00    +0.000 C 
BRANCH  10  11
ATOM     11  C   UNL     1       3.067  -0.572  -0.658  0.00  0.00    +0.000 A 
ATOM     12  C   UNL     1       4.217  -1.279  -0.340  0.00  0.00    +0.000 A 
ATOM     13  C   UNL     1       5.471  -0.682  -0.365  0.00  0.00    +0.000 A 
ATOM     14  C   UNL     1       5.514   0.706  -0.364  0.00  0.00    +0.000 A 
ATOM     15  O   UNL     1       6.714   1.352  -0.119  0.00  0.00    +0.000 OA
ATOM     16  C   UNL     1       4.403   1.419  -0.796  0.00  0.00    +0.000 A 
ATOM     17  C   UNL     1       3.285   0.693  -1.189  0.00  0.00    +0.000 A 
ENDBRANCH  10  11
ENDBRANCH   3   9
BRANCH   5  18
ATOM     18  O   UNL     1      -3.387  -2.428   0.915  0.00  0.00    +0.000 OA
ATOM     19  C   UNL     1      -3.497  -3.253  -0.241  0.00  0.00    +0.000 C 
ENDBRANCH   5  18
BRANCH   6  20
ATOM     20  O   UNL     1      -4.683  -0.110   0.096  0.00  0.00    +0.000 OA
ATOM     21  C   UNL     1      -5.379   0.855  -0.648  0.00  0.00    +0.000 C 
ENDBRANCH   6  20
TORSDOF 5
