MODEL 1
REMARK VINA RESULT:      -0.0      0.000      0.000
REMARK  Name = 
REMARK  5 active torsions:
REMARK  status: ('A' for Active; 'I' for Inactive)
REMARK    1  A    between atoms: O_2  and  C_3
REMARK    2  A    between atoms: C_5  and  C_6
REMARK    3  A    between atoms: C_7  and  C_8
REMARK    4  A    between atoms: C_16  and  O_17
REMARK    5  A    between atoms: C_19  and  O_20
REMARK                            x       y       z     vdW  Elec       q    Type
REMARK                         _______ _______ _______ _____ _____    ______ ____
ROOT
ATOM      1  C   UNL     1      -6.751   7.523  70.331  0.00  0.00    +0.000 A 
ATOM      2  C   UNL     1      -7.345   8.747  70.504  0.00  0.00    +0.000 A 
ATOM      3  C   UNL     1      -8.494   8.927  71.264  0.00  0.00    +0.000 A 
ATOM      4  C   UNL     1      -9.051   7.791  71.818  0.00  0.00    +0.000 A 
ATOM      5  C   UNL     1      -8.494   6.529  71.651  0.00  0.00    +0.000 A 
ATOM      6  C   UNL     1      -7.260   6.449  71.026  0.00  0.00    +0.000 A 
ENDROOT
BRANCH   1   8
ATOM      7  C   UNL     1      -4.544   7.634  69.232  0.00  0.00    +0.000 C 
ATOM      8  O   UNL     1      -5.907   7.254  69.251  0.00  0.00    +0.000 OA
ENDBRANCH   1   8
BRANCH   3   9
ATOM      9  C   UNL     1      -8.647  10.256  71.869  0.00  0.00    +0.000 C 
ATOM     10  C   UNL     1      -7.796  11.234  71.676  0.00  0.00    +0.000 C 
BRANCH  10  11
ATOM     11  C   UNL     1      -7.585  12.225  72.739  0.00  0.00    +0.000 A 
ATOM     12  C   UNL     1      -6.478  13.061  72.741  0.00  0.00    +0.000 A 
ATOM     13  C   UNL     1      -6.004  13.641  73.910  0.00  0.00    +0.000 A 
ATOM     14  C   UNL     1      -6.433  13.091  75.111  0.00  0.00    +0.000 A 
ATOM     15  O   UNL     1      -5.796  13.444  76.290  0.00  0.00    +0.000 OA
ATOM     16  C   UNL     1      -7.608  12.352  75.137  0.00  0.00    +0.000 A 
ATOM     17  C   UNL     1      -8.287  12.180  73.937  0.00  0.00    +0.000 A 
ENDBRANCH  10  11
ENDBRANCH   3   9
BRANCH   5  18
ATOM     18  O   UNL     1      -8.917   5.520  72.520  0.00  0.00    +0.000 OA
ATOM     19  C   UNL     1      -8.803   5.774  73.917  0.00  0.00    +0.000 C 
ENDBRANCH   5  18
BRANCH   6  20
ATOM     20  O   UNL     1      -6.466   5.340  71.223  0.00  0.00    +0.000 OA
ATOM     21  C   UNL     1      -5.406   5.270  72.140  0.00  0.00    +0.000 C 
ENDBRANCH   6  20
TORSDOF 5
ENDMDL
MODEL 2
REMARK VINA RESULT:      -0.0      3.657      6.108
REMARK  Name = 
REMARK  5 active torsions:
REMARK  status: ('A' for Active; 'I' for Inactive)
REMARK    1  A    between atoms: O_2  and  C_3
REMARK    2  A    between atoms: C_5  and  C_6
REMARK    3  A    between atoms: C_7  and  C_8
REMARK    4  A    between atoms: C_16  and  O_17
REMARK    5  A    between atoms: C_19  and  O_20
REMARK                            x       y       z     vdW  Elec       q    Type
REMARK                         _______ _______ _______ _____ _____    ______ ____
ROOT
ATOM      1  C   UNL     1      -2.208   4.492  68.687  0.00  0.00    +0.000 A 
ATOM      2  C   UNL     1      -2.876   5.619  68.280  0.00  0.00    +0.000 A 
ATOM      3  C   UNL     1      -4.096   5.576  67.618  0.00  0.00    +0.000 A 
ATOM      4  C   UNL     1      -4.603   4.321  67.343  0.00  0.00    +0.000 A 
ATOM      5  C   UNL     1      -3.950   3.153  67.718  0.00  0.00    +0.000 A 
ATOM      6  C   UNL     1      -2.828   3.275  68.521  0.00  0.00    +0.000 A 
ENDROOT
BRANCH   1   8
ATOM      7  C   UNL     1      -0.267   4.957  70.140  0.00  0.00    +0.000 C 
ATOM      8  O   UNL     1      -0.832   4.492  68.928  0.00  0.00    +0.000 OA
ENDBRANCH   1   8
BRANCH   3   9
ATOM      9  C   UNL     1      -4.956   6.751  67.805  0.00  0.00    +0.000 C 
ATOM     10  C   UNL     1      -4.613   7.781  68.537  0.00  0.00    +0.000 C 
BRANCH  10  11
ATOM     11  C   UNL     1      -5.654   8.550  69.232  0.00  0.00    +0.000 A 
ATOM     12  C   UNL     1      -5.436   9.091  70.490  0.00  0.00    +0.000 A 
ATOM     13  C   UNL     1      -6.487   9.387  71.349  0.00  0.00    +0.000 A 
ATOM     14  C   UNL     1      -7.717   8.806  71.072  0.00  0.00    +0.000 A 
ATOM     15  O   UNL     1      -8.720   8.843  72.026  0.00  0.00    +0.000 OA
ATOM     16  C   UNL     1      -7.985   8.369  69.781  0.00  0.00    +0.000 A 
ATOM     17  C   UNL     1      -6.983   8.519  68.830  0.00  0.00    +0.000 A 
ENDBRANCH  10  11
ENDBRANCH   3   9
BRANCH   5  18
ATOM     18  O   UNL     1      -4.694   1.970  67.711  0.00  0.00    +0.000 OA
ATOM     19  C   UNL     1      -5.903   1.957  68.464  0.00  0.00    +0.000 C 
ENDBRANCH   5  18
BRANCH   6  20
ATOM     20  O   UNL     1      -2.412   2.201  69.280  0.00  0.00    +0.000 OA
ATOM     21  C   UNL     1      -2.707   2.024  70.640  0.00  0.00    +0.000 C 
ENDBRANCH   6  20
TORSDOF 5
ENDMDL
MODEL 3
REMARK VINA RESULT:      -0.0     29.619     32.428
REMARK  Name = 
REMARK  5 active torsions:
REMARK  status: ('A' for Active; 'I' for Inactive)
REMARK    1  A    between atoms: O_2  and  C_3
REMARK    2  A    between atoms: C_5  and  C_6
REMARK    3  A    between atoms: C_7  and  C_8
REMARK    4  A    between atoms: C_16  and  O_17
REMARK    5  A    between atoms: C_19  and  O_20
REMARK                            x       y       z     vdW  Elec       q    Type
REMARK                         _______ _______ _______ _____ _____    ______ ____
ROOT
ATOM      1  C   UNL     1      17.331  21.809  51.692  0.00  0.00    +0.000 A 
ATOM      2  C   UNL     1      17.050  22.203  52.975  0.00  0.00    +0.000 A 
ATOM      3  C   UNL     1      16.236  23.290  53.270  0.00  0.00    +0.000 A 
ATOM      4  C   UNL     1      15.741  24.000  52.193  0.00  0.00    +0.000 A 
ATOM      5  C   UNL     1      16.017  23.648  50.878  0.00  0.00    +0.000 A 
ATOM      6  C   UNL     1      16.694  22.459  50.659  0.00  0.00    +0.000 A 
ENDROOT
BRANCH   1   8
ATOM      7  C   UNL     1      18.504  19.642  51.550  0.00  0.00    +0.000 C 
ATOM      8  O   UNL     1      18.459  21.046  51.380  0.00  0.00    +0.000 OA
ENDBRANCH   1   8
BRANCH   3   9
ATOM      9  C   UNL     1      15.534  23.219  54.558  0.00  0.00    +0.000 C 
ATOM     10  C   UNL     1      15.658  22.213  55.388  0.00  0.00    +0.000 C 
BRANCH  10  11
ATOM     11  C   UNL     1      14.526  21.846  56.248  0.00  0.00    +0.000 A 
ATOM     12  C   UNL     1      14.251  20.522  56.558  0.00  0.00    +0.000 A 
ATOM     13  C   UNL     1      12.981  20.111  56.940  0.00  0.00    +0.000 A 
ATOM     14  C   UNL     1      11.925  20.969  56.662  0.00  0.00    +0.000 A 
ATOM     15  O   UNL     1      10.623  20.508  56.771  0.00  0.00    +0.000 OA
ATOM     16  C   UNL     1      12.182  22.320  56.469  0.00  0.00    +0.000 A 
ATOM     17  C   UNL     1      13.504  22.740  56.542  0.00  0.00    +0.000 A 
ENDBRANCH  10  11
ENDBRANCH   3   9
BRANCH   5  18
ATOM     18  O   UNL     1      15.206  24.198  49.882  0.00  0.00    +0.000 OA
ATOM     19  C   UNL     1      13.800  24.009  50.010  0.00  0.00    +0.000 C 
ENDBRANCH   5  18
BRANCH   6  20
ATOM     20  O   UNL     1      16.606  21.840  49.430  0.00  0.00    +0.000 OA
ATOM     21  C   UNL     1      15.737  20.779  49.132  0.00  0.00    +0.000 C 
ENDBRANCH   6  20
TORSDOF 5
ENDMDL
MODEL 4
REMARK VINA RESULT:      -0.0     26.119     28.238
REMARK  Name = 
REMARK  5 active torsions:
REMARK  status: ('A' for Active; 'I' for Inactive)
REMARK    1  A    between atoms: O_2  and  C_3
REMARK    2  A    between atoms: C_5  and  C_6
REMARK    3  A    between atoms: C_7  and  C_8
REMARK    4  A    between atoms: C_16  and  O_17
REMARK    5  A    between atoms: C_19  and  O_20
REMARK                            x       y       z     vdW  Elec       q    Type
REMARK                         _______ _______ _______ _____ _____    ______ ____
ROOT
ATOM      1  C   UNL     1      13.798  28.129  67.575  0.00  0.00    +0.000 A 
ATOM      2  C   UNL     1      13.140  27.207  68.348  0.00  0.00    +0.000 A 
ATOM      3  C   UNL     1      13.763  26.084  68.880  0.00  0.00    +0.000 A 
ATOM      4  C   UNL     1      15.095  25.908  68.558  0.00  0.00    +0.000 A 
ATOM      5  C   UNL     1      15.794  26.807  67.761  0.00  0.00    +0.000 A 
ATOM      6  C   UNL     1      15.157  27.985  67.408  0.00  0.00    +0.000 A 
ENDROOT
BRANCH   1   8
ATOM      7  C   UNL     1      12.479  30.162  67.110  0.00  0.00    +0.000 C 
ATOM      8  O   UNL     1      13.122  28.974  66.691  0.00  0.00    +0.000 OA
ENDBRANCH   1   8
BRANCH   3   9
ATOM      9  C   UNL     1      13.178  25.569  70.123  0.00  0.00    +0.000 C 
ATOM     10  C   UNL     1      12.137  26.113  70.705  0.00  0.00    +0.000 C 
BRANCH  10  11
ATOM     11  C   UNL     1      12.011  26.042  72.167  0.00  0.00    +0.000 A 
ATOM     12  C   UNL     1      11.473  27.090  72.899  0.00  0.00    +0.000 A 
ATOM     13  C   UNL     1      11.767  27.266  74.245  0.00  0.00    +0.000 A 
ATOM     14  C   UNL     1      12.873  26.594  74.747  0.00  0.00    +0.000 A 
ATOM     15  O   UNL     1      13.371  26.934  75.994  0.00  0.00    +0.000 OA
ATOM     16  C   UNL     1      13.344  25.470  74.081  0.00  0.00    +0.000 A 
ATOM     17  C   UNL     1      12.685  25.088  72.918  0.00  0.00    +0.000 A 
ENDBRANCH  10  11
ENDBRANCH   3   9
BRANCH   5  18
ATOM     18  O   UNL     1      17.190  26.733  67.783  0.00  0.00    +0.000 OA
ATOM     19  C   UNL     1      17.826  26.818  69.054  0.00  0.00    +0.000 C 
ENDBRANCH   5  18
BRANCH   6  20
ATOM     20  O   UNL     1      15.905  29.078  67.026  0.00  0.00    +0.000 OA
ATOM     21  C   UNL     1      16.248  30.145  67.871  0.00  0.00    +0.000 C 
ENDBRANCH   6  20
TORSDOF 5
ENDMDL
MODEL 5
REMARK VINA RESULT:      -0.0     34.796     37.287
REMARK  Name = 
REMARK  5 active torsions:
REMARK  status: ('A' for Active; 'I' for Inactive)
REMARK    1  A    between atoms: O_2  and  C_3
REMARK    2  A    between atoms: C_5  and  C_6
REMARK    3  A    between atoms: C_7  and  C_8
REMARK    4  A    between atoms: C_16  and  O_17
REMARK    5  A    between atoms: C_19  and  O_20
REMARK                            x       y       z     vdW  Elec       q    Type
REMARK                         _______ _______ _______ _____ _____    ______ ____
ROOT
ATOM      1  C   UNL     1      17.196  27.946  55.691  0.00  0.00    +0.000 A 
ATOM      2  C   UNL     1      17.696  26.971  54.865  0.00  0.00    +0.000 A 
ATOM      3  C   UNL     1      17.079  26.598  53.677  0.00  0.00    +0.000 A 
ATOM      4  C   UNL     1      15.893  27.236  53.373  0.00  0.00    +0.000 A 
ATOM      5  C   UNL     1      15.340  28.214  54.190  0.00  0.00    +0.000 A 
ATOM      6  C   UNL     1      16.094  28.652  55.267  0.00  0.00    +0.000 A 
ENDROOT
BRANCH   1   8
ATOM      7  C   UNL     1      18.731  28.591  57.513  0.00  0.00    +0.000 C 
ATOM      8  O   UNL     1      17.527  28.011  57.046  0.00  0.00    +0.000 OA
ENDBRANCH   1   8
BRANCH   3   9
ATOM      9  C   UNL     1      17.975  26.062  52.645  0.00  0.00    +0.000 C 
ATOM     10  C   UNL     1      19.267  25.932  52.814  0.00  0.00    +0.000 C 
BRANCH  10  11
ATOM     11  C   UNL     1      20.161  26.059  51.655  0.00  0.00    +0.000 A 
ATOM     12  C   UNL     1      21.409  26.653  51.766  0.00  0.00    +0.000 A 
ATOM     13  C   UNL     1      22.053  27.209  50.668  0.00  0.00    +0.000 A 
ATOM     14  C   UNL     1      21.280  27.476  49.546  0.00  0.00    +0.000 A 
ATOM     15  O   UNL     1      21.796  28.266  48.533  0.00  0.00    +0.000 OA
ATOM     16  C   UNL     1      20.082  26.794  49.370  0.00  0.00    +0.000 A 
ATOM     17  C   UNL     1      19.708  25.886  50.354  0.00  0.00    +0.000 A 
ENDBRANCH  10  11
ENDBRANCH   3   9
BRANCH   5  18
ATOM     18  O   UNL     1      14.350  29.031  53.636  0.00  0.00    +0.000 OA
ATOM     19  C   UNL     1      14.673  29.719  52.432  0.00  0.00    +0.000 C 
ENDBRANCH   5  18
BRANCH   6  20
ATOM     20  O   UNL     1      15.829  29.883  55.829  0.00  0.00    +0.000 OA
ATOM     21  C   UNL     1      16.538  31.060  55.542  0.00  0.00    +0.000 C 
ENDBRANCH   6  20
TORSDOF 5
ENDMDL
MODEL 6
REMARK VINA RESULT:      -0.0     29.377     32.177
REMARK  Name = 
REMARK  5 active torsions:
REMARK  status: ('A' for Active; 'I' for Inactive)
REMARK    1  A    between atoms: O_2  and  C_3
REMARK    2  A    between atoms: C_5  and  C_6
REMARK    3  A    between atoms: C_7  and  C_8
REMARK    4  A    between atoms: C_16  and  O_17
REMARK    5  A    between atoms: C_19  and  O_20
REMARK                            x       y       z     vdW  Elec       q    Type
REMARK                         _______ _______ _______ _____ _____    ______ ____
ROOT
ATOM      1  C   UNL     1      21.418  20.306  61.178  0.00  0.00    +0.000 A 
ATOM      2  C   UNL     1      20.857  21.031  60.158  0.00  0.00    +0.000 A 
ATOM      3  C   UNL     1      20.987  20.678  58.820  0.00  0.00    +0.000 A 
ATOM      4  C   UNL     1      21.755  19.563  58.549  0.00  0.00    +0.000 A 
ATOM      5  C   UNL     1      22.358  18.811  59.550  0.00  0.00    +0.000 A 
ATOM      6  C   UNL     1      22.047  19.123  60.863  0.00  0.00    +0.000 A 
ENDROOT
BRANCH   1   8
ATOM      7  C   UNL     1      20.686  21.016  63.425  0.00  0.00    +0.000 C 
ATOM      8  O   UNL     1      21.681  20.867  62.430  0.00  0.00    +0.000 OA
ENDBRANCH   1   8
BRANCH   3   9
ATOM      9  C   UNL     1      19.890  21.113  57.946  0.00  0.00    +0.000 C 
ATOM     10  C   UNL     1      18.856  21.792  58.376  0.00  0.00    +0.000 C 
BRANCH  10  11
ATOM     11  C   UNL     1      17.556  21.619  57.715  0.00  0.00    +0.000 A 
ATOM     12  C   UNL     1      16.369  21.648  58.433  0.00  0.00    +0.000 A 
ATOM     13  C   UNL     1      15.216  21.035  57.960  0.00  0.00    +0.000 A 
ATOM     14  C   UNL     1      15.363  20.102  56.943  0.00  0.00    +0.000 A 
ATOM     15  O   UNL     1      14.303  19.272  56.619  0.00  0.00    +0.000 OA
ATOM     16  C   UNL     1      16.497  20.144  56.143  0.00  0.00    +0.000 A 
ATOM     17  C   UNL     1      17.447  21.119  56.424  0.00  0.00    +0.000 A 
ENDBRANCH  10  11
ENDBRANCH   3   9
BRANCH   5  18
ATOM     18  O   UNL     1      22.808  17.532  59.210  0.00  0.00    +0.000 OA
ATOM     19  C   UNL     1      21.862  16.644  58.623  0.00  0.00    +0.000 C 
ENDBRANCH   5  18
BRANCH   6  20
ATOM     20  O   UNL     1      22.233  18.178  61.851  0.00  0.00    +0.000 OA
ATOM     21  C   UNL     1      21.220  17.356  62.368  0.00  0.00    +0.000 C 
ENDBRANCH   6  20
TORSDOF 5
ENDMDL
MODEL 7
REMARK VINA RESULT:      -0.0     27.203     29.218
REMARK  Name = 
REMARK  5 active torsions:
REMARK  status: ('A' for Active; 'I' for Inactive)
REMARK    1  A    between atoms: O_2  and  C_3
REMARK    2  A    between atoms: C_5  and  C_6
REMARK    3  A    between atoms: C_7  and  C_8
REMARK    4  A    between atoms: C_16  and  O_17
REMARK    5  A    between atoms: C_19  and  O_20
REMARK                            x       y       z     vdW  Elec       q    Type
REMARK                         _______ _______ _______ _____ _____    ______ ____
ROOT
ATOM      1  C   UNL     1      -2.990  29.965  51.383  0.00  0.00    +0.000 A 
ATOM      2  C   UNL     1      -4.222  29.691  50.846  0.00  0.00    +0.000 A 
ATOM      3  C   UNL     1      -5.030  28.655  51.298  0.00  0.00    +0.000 A 
ATOM      4  C   UNL     1      -4.513  27.867  52.308  0.00  0.00    +0.000 A 
ATOM      5  C   UNL     1      -3.262  28.095  52.867  0.00  0.00    +0.000 A 
ATOM      6  C   UNL     1      -2.587  29.243  52.484  0.00  0.00    +0.000 A 
ENDROOT
BRANCH   1   8
ATOM      7  C   UNL     1      -2.004  32.081  50.584  0.00  0.00    +0.000 C 
ATOM      8  O   UNL     1      -2.012  30.669  50.676  0.00  0.00    +0.000 OA
ENDBRANCH   1   8
BRANCH   3   9
ATOM      9  C   UNL     1      -6.472  28.855  51.114  0.00  0.00    +0.000 C 
ATOM     10  C   UNL     1      -6.983  29.926  50.559  0.00  0.00    +0.000 C 
BRANCH  10  11
ATOM     11  C   UNL     1      -8.309  30.394  50.982  0.00  0.00    +0.000 A 
ATOM     12  C   UNL     1      -8.607  31.746  51.065  0.00  0.00    +0.000 A 
ATOM     13  C   UNL     1      -9.625  32.221  51.882  0.00  0.00    +0.000 A 
ATOM     14  C   UNL     1     -10.094  31.368  52.873  0.00  0.00    +0.000 A 
ATOM     15  O   UNL     1     -10.905  31.868  53.877  0.00  0.00    +0.000 OA
ATOM     16  C   UNL     1      -9.901  29.999  52.736  0.00  0.00    +0.000 A 
ATOM     17  C   UNL     1      -9.220  29.554  51.609  0.00  0.00    +0.000 A 
ENDBRANCH  10  11
ENDBRANCH   3   9
BRANCH   5  18
ATOM     18  O   UNL     1      -2.982  27.481  54.090  0.00  0.00    +0.000 OA
ATOM     19  C   UNL     1      -3.894  27.716  55.159  0.00  0.00    +0.000 C 
ENDBRANCH   5  18
BRANCH   6  20
ATOM     20  O   UNL     1      -1.597  29.755  53.295  0.00  0.00    +0.000 OA
ATOM     21  C   UNL     1      -1.776  30.807  54.206  0.00  0.00    +0.000 C 
ENDBRANCH   6  20
TORSDOF 5
ENDMDL
MODEL 8
REMARK VINA RESULT:      -0.0     29.543     33.159
REMARK  Name = 
REMARK  5 active torsions:
REMARK  status: ('A' for Active; 'I' for Inactive)
REMARK    1  A    between atoms: O_2  and  C_3
REMARK    2  A    between atoms: C_5  and  C_6
REMARK    3  A    between atoms: C_7  and  C_8
REMARK    4  A    between atoms: C_16  and  O_17
REMARK    5  A    between atoms: C_19  and  O_20
REMARK                            x       y       z     vdW  Elec       q    Type
REMARK                         _______ _______ _______ _____ _____    ______ ____
ROOT
ATOM      1  C   UNL     1      18.182  28.258  77.741  0.00  0.00    +0.000 A 
ATOM      2  C   UNL     1      18.374  29.058  76.644  0.00  0.00    +0.000 A 
ATOM      3  C   UNL     1      17.345  29.414  75.780  0.00  0.00    +0.000 A 
ATOM      4  C   UNL     1      16.099  28.886  76.055  0.00  0.00    +0.000 A 
ATOM      5  C   UNL     1      15.864  28.056  77.144  0.00  0.00    +0.000 A 
ATOM      6  C   UNL     1      16.895  27.881  78.053  0.00  0.00    +0.000 A 
ENDROOT
BRANCH   1   8
ATOM      7  C   UNL     1      20.140  28.133  79.238  0.00  0.00    +0.000 C 
ATOM      8  O   UNL     1      19.228  27.544  78.331  0.00  0.00    +0.000 OA
ENDBRANCH   1   8
BRANCH   3   9
ATOM      9  C   UNL     1      17.523  30.694  75.084  0.00  0.00    +0.000 C 
ATOM     10  C   UNL     1      18.591  31.441  75.217  0.00  0.00    +0.000 C 
BRANCH  10  11
ATOM     11  C   UNL     1      18.470  32.900  75.099  0.00  0.00    +0.000 A 
ATOM     12  C   UNL     1      19.466  33.749  75.556  0.00  0.00    +0.000 A 
ATOM     13  C   UNL     1      19.201  35.069  75.896  0.00  0.00    +0.000 A 
ATOM     14  C   UNL     1      17.873  35.416  76.109  0.00  0.00    +0.000 A 
ATOM     15  O   UNL     1      17.571  36.629  76.705  0.00  0.00    +0.000 OA
ATOM     16  C   UNL     1      16.870  34.633  75.551  0.00  0.00    +0.000 A 
ATOM     17  C   UNL     1      17.257  33.517  74.819  0.00  0.00    +0.000 A 
ENDBRANCH  10  11
ENDBRANCH   3   9
BRANCH   5  18
ATOM     18  O   UNL     1      14.535  27.864  77.531  0.00  0.00    +0.000 OA
ATOM     19  C   UNL     1      13.762  29.029  77.802  0.00  0.00    +0.000 C 
ENDBRANCH   5  18
BRANCH   6  20
ATOM     20  O   UNL     1      16.610  27.466  79.336  0.00  0.00    +0.000 OA
ATOM     21  C   UNL     1      16.494  28.319  80.444  0.00  0.00    +0.000 C 
ENDBRANCH   6  20
TORSDOF 5
ENDMDL
MODEL 9
REMARK VINA RESULT:      -0.0     28.401     30.263
REMARK  Name = 
REMARK  5 active torsions:
REMARK  status: ('A' for Active; 'I' for Inactive)
REMARK    1  A    between atoms: O_2  and  C_3
REMARK    2  A    between atoms: C_5  and  C_6
REMARK    3  A    between atoms: C_7  and  C_8
REMARK    4  A    between atoms: C_16  and  O_17
REMARK    5  A    between atoms: C_19  and  O_20
REMARK                            x       y       z     vdW  Elec       q    Type
REMARK                         _______ _______ _______ _____ _____    ______ ____
ROOT
ATOM      1  C   UNL     1      -1.712  28.099  48.041  0.00  0.00    +0.000 A 
ATOM      2  C   UNL     1      -2.962  28.078  47.478  0.00  0.00    +0.000 A 
ATOM      3  C   UNL     1      -3.524  26.932  46.929  0.00  0.00    +0.000 A 
ATOM      4  C   UNL     1      -2.738  25.796  46.937  0.00  0.00    +0.000 A 
ATOM      5  C   UNL     1      -1.458  25.778  47.478  0.00  0.00    +0.000 A 
ATOM      6  C   UNL     1      -1.032  26.908  48.157  0.00  0.00    +0.000 A 
ENDROOT
BRANCH   1   8
ATOM      7  C   UNL     1      -1.209  30.211  49.215  0.00  0.00    +0.000 C 
ATOM      8  O   UNL     1      -0.978  29.281  48.175  0.00  0.00    +0.000 OA
ENDBRANCH   1   8
BRANCH   3   9
ATOM      9  C   UNL     1      -4.991  26.876  46.953  0.00  0.00    +0.000 C 
ATOM     10  C   UNL     1      -5.739  27.864  47.378  0.00  0.00    +0.000 C 
BRANCH  10  11
ATOM     11  C   UNL     1      -7.032  27.567  48.008  0.00  0.00    +0.000 A 
ATOM     12  C   UNL     1      -7.690  28.507  48.787  0.00  0.00    +0.000 A 
ATOM     13  C   UNL     1      -8.619  28.135  49.751  0.00  0.00    +0.000 A 
ATOM     14  C   UNL     1      -8.611  26.809  50.162  0.00  0.00    +0.000 A 
ATOM     15  O   UNL     1      -9.317  26.441  51.295  0.00  0.00    +0.000 OA
ATOM     16  C   UNL     1      -8.058  25.844  49.329  0.00  0.00    +0.000 A 
ATOM     17  C   UNL     1      -7.515  26.270  48.123  0.00  0.00    +0.000 A 
ENDBRANCH  10  11
ENDBRANCH   3   9
BRANCH   5  18
ATOM     18  O   UNL     1      -0.894  24.529  47.752  0.00  0.00    +0.000 OA
ATOM     19  C   UNL     1      -1.639  23.648  48.587  0.00  0.00    +0.000 C 
ENDBRANCH   5  18
BRANCH   6  20
ATOM     20  O   UNL     1      -0.006  26.807  49.073  0.00  0.00    +0.000 OA
ATOM     21  C   UNL     1      -0.185  26.695  50.461  0.00  0.00    +0.000 C 
ENDBRANCH   6  20
TORSDOF 5
ENDMDL
MODEL 10
REMARK VINA RESULT:      -0.0     27.916     30.139
REMARK  Name = 
REMARK  5 active torsions:
REMARK  status: ('A' for Active; 'I' for Inactive)
REMARK    1  A    between atoms: O_2  and  C_3
REMARK    2  A    between atoms: C_5  and  C_6
REMARK    3  A    between atoms: C_7  and  C_8
REMARK    4  A    between atoms: C_16  and  O_17
REMARK    5  A    between atoms: C_19  and  O_20
REMARK                            x       y       z     vdW  Elec       q    Type
REMARK                         _______ _______ _______ _____ _____    ______ ____
ROOT
ATOM      1  C   UNL     1      20.510  15.222  79.938  0.00  0.00    +0.000 A 
ATOM      2  C   UNL     1      20.407  14.659  81.184  0.00  0.00    +0.000 A 
ATOM      3  C   UNL     1      19.462  13.690  81.500  0.00  0.00    +0.000 A 
ATOM      4  C   UNL     1      18.583  13.337  80.495  0.00  0.00    +0.000 A 
ATOM      5  C   UNL     1      18.639  13.896  79.224  0.00  0.00    +0.000 A 
ATOM      6  C   UNL     1      19.708  14.727  78.934  0.00  0.00    +0.000 A 
ENDROOT
BRANCH   1   8
ATOM      7  C   UNL     1      22.516  16.630  79.646  0.00  0.00    +0.000 C 
ATOM      8  O   UNL     1      21.113  16.465  79.733  0.00  0.00    +0.000 OA
ENDBRANCH   1   8
BRANCH   3   9
ATOM      9  C   UNL     1      19.843  12.768  82.576  0.00  0.00    +0.000 C 
ATOM     10  C   UNL     1      20.968  12.865  83.241  0.00  0.00    +0.000 C 
BRANCH  10  11
ATOM     11  C   UNL     1      21.602  11.649  83.765  0.00  0.00    +0.000 A 
ATOM     12  C   UNL     1      22.929  11.642  84.170  0.00  0.00    +0.000 A 
ATOM     13  C   UNL     1      23.674  10.470  84.209  0.00  0.00    +0.000 A 
ATOM     14  C   UNL     1      23.181   9.381  83.502  0.00  0.00    +0.000 A 
ATOM     15  O   UNL     1      23.998   8.284  83.281  0.00  0.00    +0.000 OA
ATOM     16  C   UNL     1      21.828   9.326  83.196  0.00  0.00    +0.000 A 
ATOM     17  C   UNL     1      21.033  10.393  83.601  0.00  0.00    +0.000 A 
ENDBRANCH  10  11
ENDBRANCH   3   9
BRANCH   5  18
ATOM     18  O   UNL     1      17.955  13.235  78.200  0.00  0.00    +0.000 OA
ATOM     19  C   UNL     1      18.262  11.859  77.996  0.00  0.00    +0.000 C 
ENDBRANCH   5  18
BRANCH   6  20
ATOM     20  O   UNL     1      20.068  14.944  77.620  0.00  0.00    +0.000 OA
ATOM     21  C   UNL     1      21.103  14.269  76.955  0.00  0.00    +0.000 C 
ENDBRANCH   6  20
TORSDOF 5
ENDMDL
