REMARK  Name = 
REMARK  6 active torsions:
REMARK  status: ('A' for Active; 'I' for Inactive)
REMARK    1  A    between atoms: O_2  and  C_3
REMARK    2  A    between atoms: C_5  and  C_6
REMARK    3  A    between atoms: C_7  and  C_8
REMARK    4  A    between atoms: C_11  and  O_12
REMARK    5  A    between atoms: C_14  and  O_15
REMARK    6  A    between atoms: C_19  and  O_20
REMARK                            x       y       z     vdW  Elec       q    Type
REMARK                         _______ _______ _______ _____ _____    ______ ____
ROOT
ATOM      1  C   UNL     1      -0.609  -0.932   0.143  0.00  0.00    +0.000 C 
ATOM      2  C   UNL     1       0.138   0.071  -0.319  0.00  0.00    +0.000 C 
ENDROOT
BRANCH   1   5
ATOM      3  C   UNL     1      -3.704   0.946   0.874  0.00  0.00    +0.000 A 
ATOM      4  C   UNL     1      -2.494   0.321   1.150  0.00  0.00    +0.000 A 
ATOM      5  C   UNL     1      -2.044  -0.749   0.387  0.00  0.00    +0.000 A 
ATOM      6  C   UNL     1      -2.928  -1.324  -0.517  0.00  0.00    +0.000 A 
ATOM      7  C   UNL     1      -4.245  -0.935  -0.554  0.00  0.00    +0.000 A 
ATOM      8  C   UNL     1      -4.543   0.312  -0.035  0.00  0.00    +0.000 A 
BRANCH   3  10
ATOM      9  C   UNL     1      -3.443   3.361   0.604  0.00  0.00    +0.000 C 
ATOM     10  O   UNL     1      -3.978   2.246   1.311  0.00  0.00    +0.000 OA
ENDBRANCH   3  10
BRANCH   7  11
ATOM     11  O   UNL     1      -5.227  -1.857  -0.906  0.00  0.00    +0.000 OA
ATOM     12  C   UNL     1      -5.614  -2.894  -0.009  0.00  0.00    +0.000 C 
ENDBRANCH   7  11
ENDBRANCH   1   5
BRANCH   2  13
ATOM     13  C   UNL     1       1.585  -0.037  -0.354  0.00  0.00    +0.000 A 
ATOM     14  C   UNL     1       2.216  -0.880  -1.261  0.00  0.00    +0.000 A 
ATOM     15  C   UNL     1       3.579  -0.737  -1.471  0.00  0.00    +0.000 A 
ATOM     16  C   UNL     1       4.254   0.190  -0.687  0.00  0.00    +0.000 A 
ATOM     17  C   UNL     1       3.737   0.401   0.582  0.00  0.00    +0.000 A 
ATOM     18  C   UNL     1       2.367   0.368   0.721  0.00  0.00    +0.000 A 
BRANCH  16  19
ATOM     19  O   UNL     1       5.575   0.545  -0.961  0.00  0.00    +0.000 OA
ATOM     20  C   UNL     1       6.573  -0.298  -0.417  0.00  0.00    +0.000 C 
ENDBRANCH  16  19
BRANCH  17  21
ATOM     21  O   UNL     1       4.588   0.924   1.555  0.00  0.00    +0.000 OA
ATOM     22  C   UNL     1       4.216   0.958   2.921  0.00  0.00    +0.000 C 
ENDBRANCH  17  21
ENDBRANCH   2  13
TORSDOF 6
