REMARK  Name = 
REMARK  7 active torsions:
REMARK  status: ('A' for Active; 'I' for Inactive)
REMARK    1  A    between atoms: C_2  and  O_3
REMARK    2  A    between atoms: O_3  and  C_4
REMARK    3  A    between atoms: C_7  and  C_8
REMARK    4  A    between atoms: C_9  and  C_10
REMARK    5  A    between atoms: C_12  and  O_13
REMARK    6  A    between atoms: C_15  and  O_16
REMARK    7  A    between atoms: C_18  and  O_19
REMARK                            x       y       z     vdW  Elec       q    Type
REMARK                         _______ _______ _______ _____ _____    ______ ____
ROOT
ATOM      1  C   UNL     1      -1.430  -0.713  -0.711  0.00  0.00    +0.000 A 
ATOM      2  C   UNL     1      -2.297  -0.223  -1.676  0.00  0.00    +0.000 A 
ATOM      3  C   UNL     1      -3.424   0.509  -1.329  0.00  0.00    +0.000 A 
ATOM      4  C   UNL     1      -3.836   0.481  -0.004  0.00  0.00    +0.000 A 
ATOM      5  C   UNL     1      -3.167  -0.316   0.899  0.00  0.00    +0.000 A 
ATOM      6  C   UNL     1      -2.002  -0.974   0.524  0.00  0.00    +0.000 A 
ENDROOT
BRANCH   1   8
ATOM      7  C   UNL     1       0.822  -0.882   0.130  0.00  0.00    +0.000 C 
ATOM      8  C   UNL     1       0.027  -0.678  -0.888  0.00  0.00    +0.000 C 
BRANCH   7  12
ATOM      9  C   UNL     1       4.715   0.218  -0.631  0.00  0.00    +0.000 A 
ATOM     10  C   UNL     1       3.845   1.220  -0.218  0.00  0.00    +0.000 A 
ATOM     11  C   UNL     1       2.563   0.901   0.213  0.00  0.00    +0.000 A 
ATOM     12  C   UNL     1       2.210  -0.443   0.208  0.00  0.00    +0.000 A 
ATOM     13  C   UNL     1       3.251  -1.310   0.524  0.00  0.00    +0.000 A 
ATOM     14  C   UNL     1       4.482  -1.025  -0.056  0.00  0.00    +0.000 A 
BRANCH   9  15
ATOM     15  O   UNL     1       5.970   0.478  -1.150  0.00  0.00    +0.000 OA
BRANCH  15  17
ATOM     16  C   UNL     1       7.655  -0.387   0.291  0.00  0.00    +0.000 C 
ATOM     17  C   UNL     1       7.014   0.860  -0.291  0.00  0.00    +0.000 C 
ENDBRANCH  15  17
ENDBRANCH   9  15
ENDBRANCH   7  12
ENDBRANCH   1   8
BRANCH   3  18
ATOM     18  O   UNL     1      -4.413   0.837  -2.261  0.00  0.00    +0.000 OA
ATOM     19  C   UNL     1      -5.400  -0.140  -2.583  0.00  0.00    +0.000 C 
ENDBRANCH   3  18
BRANCH   4  20
ATOM     20  O   UNL     1      -4.616   1.509   0.477  0.00  0.00    +0.000 OA
ATOM     21  C   UNL     1      -4.065   2.563   1.249  0.00  0.00    +0.000 C 
ENDBRANCH   4  20
BRANCH   5  22
ATOM     22  O   UNL     1      -3.703  -0.586   2.140  0.00  0.00    +0.000 OA
ATOM     23  C   UNL     1      -4.202  -1.903   2.353  0.00  0.00    +0.000 C 
ENDBRANCH   5  22
TORSDOF 7
