REMARK  Name = 
REMARK  8 active torsions:
REMARK  status: ('A' for Active; 'I' for Inactive)
REMARK    1  A    between atoms: C_2  and  C_3
REMARK    2  A    between atoms: C_3  and  O_4
REMARK    3  A    between atoms: O_4  and  C_5
REMARK    4  A    between atoms: C_8  and  C_9
REMARK    5  A    between atoms: C_10  and  C_11
REMARK    6  A    between atoms: C_13  and  O_14
REMARK    7  A    between atoms: C_16  and  O_17
REMARK    8  A    between atoms: C_19  and  O_20
REMARK                            x       y       z     vdW  Elec       q    Type
REMARK                         _______ _______ _______ _____ _____    ______ ____
ROOT
ATOM      1  C   UNL     1       0.487  -1.511   1.023  0.00  0.00    +0.000 C 
ATOM      2  C   UNL     1      -0.284  -0.472   1.241  0.00  0.00    +0.000 C 
ENDROOT
BRANCH   1   6
ATOM      3  C   UNL     1       4.222  -0.114  -0.218  0.00  0.00    +0.000 A 
ATOM      4  C   UNL     1       3.229  -0.431  -1.138  0.00  0.00    +0.000 A 
ATOM      5  C   UNL     1       2.139  -1.209  -0.766  0.00  0.00    +0.000 A 
ATOM      6  C   UNL     1       1.880  -1.427   0.582  0.00  0.00    +0.000 A 
ATOM      7  C   UNL     1       2.949  -1.332   1.429  0.00  0.00    +0.000 A 
ATOM      8  C   UNL     1       4.156  -0.806   0.985  0.00  0.00    +0.000 A 
BRANCH   3   9
ATOM      9  O   UNL     1       4.961   1.062  -0.343  0.00  0.00    +0.000 OA
BRANCH   9  10
ATOM     10  C   UNL     1       6.246   1.111  -0.919  0.00  0.00    +0.000 C 
BRANCH  10  12
ATOM     11  C   UNL     1       7.720   0.502   1.021  0.00  0.00    +0.000 C 
ATOM     12  C   UNL     1       7.192   1.619   0.159  0.00  0.00    +0.000 C 
ENDBRANCH  10  12
ENDBRANCH   9  10
ENDBRANCH   3   9
ENDBRANCH   1   6
BRANCH   2  13
ATOM     13  C   UNL     1      -1.671  -0.372   0.773  0.00  0.00    +0.000 A 
ATOM     14  C   UNL     1      -1.876  -0.176  -0.588  0.00  0.00    +0.000 A 
ATOM     15  C   UNL     1      -3.134  -0.212  -1.143  0.00  0.00    +0.000 A 
ATOM     16  C   UNL     1      -4.180   0.147  -0.303  0.00  0.00    +0.000 A 
ATOM     17  C   UNL     1      -3.948   0.330   1.053  0.00  0.00    +0.000 A 
ATOM     18  C   UNL     1      -2.698   0.073   1.598  0.00  0.00    +0.000 A 
BRANCH  15  19
ATOM     19  O   UNL     1      -3.220   0.052  -2.513  0.00  0.00    +0.000 OA
ATOM     20  C   UNL     1      -2.707   1.318  -2.918  0.00  0.00    +0.000 C 
ENDBRANCH  15  19
BRANCH  16  21
ATOM     21  O   UNL     1      -5.462  -0.104  -0.798  0.00  0.00    +0.000 OA
ATOM     22  C   UNL     1      -5.934  -1.441  -0.690  0.00  0.00    +0.000 C 
ENDBRANCH  16  21
BRANCH  17  23
ATOM     23  O   UNL     1      -4.941   1.018   1.746  0.00  0.00    +0.000 OA
ATOM     24  C   UNL     1      -5.127   2.374   1.372  0.00  0.00    +0.000 C 
ENDBRANCH  17  23
ENDBRANCH   2  13
TORSDOF 8
