MODEL 1
REMARK VINA RESULT:      -0.0      0.000      0.000
REMARK  Name = 
REMARK  4 active torsions:
REMARK  status: ('A' for Active; 'I' for Inactive)
REMARK    1  A    between atoms: O_2  and  C_3
REMARK    2  A    between atoms: C_5  and  C_6
REMARK    3  A    between atoms: C_7  and  C_8
REMARK    4  A    between atoms: C_16  and  O_17
REMARK                            x       y       z     vdW  Elec       q    Type
REMARK                         _______ _______ _______ _____ _____    ______ ____
ROOT
ATOM      1  C   UNL     1      11.870  26.052  70.957  0.00  0.00    +0.000 A 
ATOM      2  C   UNL     1      12.434  25.076  70.144  0.00  0.00    +0.000 A 
ATOM      3  C   UNL     1      13.783  24.785  70.183  0.00  0.00    +0.000 A 
ATOM      4  C   UNL     1      14.533  25.530  71.086  0.00  0.00    +0.000 A 
ATOM      5  C   UNL     1      13.989  26.533  71.858  0.00  0.00    +0.000 A 
ATOM      6  C   UNL     1      12.675  26.876  71.690  0.00  0.00    +0.000 A 
ENDROOT
BRANCH   1   8
ATOM      7  C   UNL     1       9.575  25.337  70.402  0.00  0.00    +0.000 C 
ATOM      8  O   UNL     1      10.488  26.230  71.032  0.00  0.00    +0.000 OA
ENDBRANCH   1   8
BRANCH   3   9
ATOM      9  C   UNL     1      14.345  23.469  69.883  0.00  0.00    +0.000 C 
ATOM     10  C   UNL     1      14.309  23.117  68.598  0.00  0.00    +0.000 C 
BRANCH  10  11
ATOM     11  C   UNL     1      15.049  24.049  67.732  0.00  0.00    +0.000 A 
ATOM     12  C   UNL     1      16.421  23.827  67.669  0.00  0.00    +0.000 A 
ATOM     13  C   UNL     1      17.139  23.936  66.495  0.00  0.00    +0.000 A 
ATOM     14  C   UNL     1      16.576  24.645  65.454  0.00  0.00    +0.000 A 
ATOM     15  O   UNL     1      17.344  25.428  64.589  0.00  0.00    +0.000 OA
ATOM     16  C   UNL     1      15.206  24.815  65.470  0.00  0.00    +0.000 A 
ATOM     17  C   UNL     1      14.463  24.287  66.495  0.00  0.00    +0.000 A 
ENDBRANCH  10  11
ENDBRANCH   3   9
BRANCH   5  18
ATOM     18  O   UNL     1      14.729  27.232  72.795  0.00  0.00    +0.000 OA
ATOM     19  C   UNL     1      16.096  26.908  72.910  0.00  0.00    +0.000 C 
ENDBRANCH   5  18
TORSDOF 4
ENDMDL
MODEL 2
REMARK VINA RESULT:      -0.0     24.106     25.618
REMARK  Name = 
REMARK  4 active torsions:
REMARK  status: ('A' for Active; 'I' for Inactive)
REMARK    1  A    between atoms: O_2  and  C_3
REMARK    2  A    between atoms: C_5  and  C_6
REMARK    3  A    between atoms: C_7  and  C_8
REMARK    4  A    between atoms: C_16  and  O_17
REMARK                            x       y       z     vdW  Elec       q    Type
REMARK                         _______ _______ _______ _____ _____    ______ ____
ROOT
ATOM      1  C   UNL     1      -4.565  35.148  56.502  0.00  0.00    +0.000 A 
ATOM      2  C   UNL     1      -3.572  34.836  55.580  0.00  0.00    +0.000 A 
ATOM      3  C   UNL     1      -2.787  35.810  54.997  0.00  0.00    +0.000 A 
ATOM      4  C   UNL     1      -3.056  37.116  55.392  0.00  0.00    +0.000 A 
ATOM      5  C   UNL     1      -4.071  37.435  56.267  0.00  0.00    +0.000 A 
ATOM      6  C   UNL     1      -4.908  36.452  56.718  0.00  0.00    +0.000 A 
ENDROOT
BRANCH   1   8
ATOM      7  C   UNL     1      -4.861  32.784  57.143  0.00  0.00    +0.000 C 
ATOM      8  O   UNL     1      -5.243  34.154  57.209  0.00  0.00    +0.000 OA
ENDBRANCH   1   8
BRANCH   3   9
ATOM      9  C   UNL     1      -1.413  35.593  54.547  0.00  0.00    +0.000 C 
ATOM     10  C   UNL     1      -1.287  34.839  53.455  0.00  0.00    +0.000 C 
BRANCH  10  11
ATOM     11  C   UNL     1      -1.978  35.410  52.288  0.00  0.00    +0.000 A 
ATOM     12  C   UNL     1      -1.263  36.384  51.600  0.00  0.00    +0.000 A 
ATOM     13  C   UNL     1      -1.254  36.466  50.222  0.00  0.00    +0.000 A 
ATOM     14  C   UNL     1      -2.263  35.830  49.528  0.00  0.00    +0.000 A 
ATOM     15  O   UNL     1      -2.808  36.363  48.357  0.00  0.00    +0.000 OA
ATOM     16  C   UNL     1      -2.937  34.816  50.177  0.00  0.00    +0.000 A 
ATOM     17  C   UNL     1      -2.594  34.477  51.461  0.00  0.00    +0.000 A 
ENDBRANCH  10  11
ENDBRANCH   3   9
BRANCH   5  18
ATOM     18  O   UNL     1      -4.295  38.730  56.701  0.00  0.00    +0.000 OA
ATOM     19  C   UNL     1      -3.462  39.740  56.179  0.00  0.00    +0.000 C 
ENDBRANCH   5  18
TORSDOF 4
ENDMDL
MODEL 3
REMARK VINA RESULT:      -0.0     20.065     23.224
REMARK  Name = 
REMARK  4 active torsions:
REMARK  status: ('A' for Active; 'I' for Inactive)
REMARK    1  A    between atoms: O_2  and  C_3
REMARK    2  A    between atoms: C_5  and  C_6
REMARK    3  A    between atoms: C_7  and  C_8
REMARK    4  A    between atoms: C_16  and  O_17
REMARK                            x       y       z     vdW  Elec       q    Type
REMARK                         _______ _______ _______ _____ _____    ______ ____
ROOT
ATOM      1  C   UNL     1      -4.012  16.047  73.936  0.00  0.00    +0.000 A 
ATOM      2  C   UNL     1      -5.394  16.009  73.789  0.00  0.00    +0.000 A 
ATOM      3  C   UNL     1      -5.994  15.968  72.547  0.00  0.00    +0.000 A 
ATOM      4  C   UNL     1      -5.127  15.968  71.459  0.00  0.00    +0.000 A 
ATOM      5  C   UNL     1      -3.759  16.055  71.597  0.00  0.00    +0.000 A 
ATOM      6  C   UNL     1      -3.216  16.227  72.841  0.00  0.00    +0.000 A 
ENDROOT
BRANCH   1   8
ATOM      7  C   UNL     1      -4.151  15.608  76.359  0.00  0.00    +0.000 C 
ATOM      8  O   UNL     1      -3.407  15.923  75.187  0.00  0.00    +0.000 OA
ENDBRANCH   1   8
BRANCH   3   9
ATOM      9  C   UNL     1      -7.285  15.334  72.282  0.00  0.00    +0.000 C 
ATOM     10  C   UNL     1      -8.344  15.980  72.770  0.00  0.00    +0.000 C 
BRANCH  10  11
ATOM     11  C   UNL     1      -8.477  17.343  72.232  0.00  0.00    +0.000 A 
ATOM     12  C   UNL     1      -9.099  17.425  70.991  0.00  0.00    +0.000 A 
ATOM     13  C   UNL     1     -10.000  18.422  70.675  0.00  0.00    +0.000 A 
ATOM     14  C   UNL     1      -9.997  19.567  71.446  0.00  0.00    +0.000 A 
ATOM     15  O   UNL     1     -10.243  20.829  70.899  0.00  0.00    +0.000 OA
ATOM     16  C   UNL     1      -9.441  19.481  72.706  0.00  0.00    +0.000 A 
ATOM     17  C   UNL     1      -8.922  18.290  73.146  0.00  0.00    +0.000 A 
ENDBRANCH  10  11
ENDBRANCH   3   9
BRANCH   5  18
ATOM     18  O   UNL     1      -2.900  15.996  70.514  0.00  0.00    +0.000 OA
ATOM     19  C   UNL     1      -3.480  15.879  69.235  0.00  0.00    +0.000 C 
ENDBRANCH   5  18
TORSDOF 4
ENDMDL
MODEL 4
REMARK VINA RESULT:      -0.0      4.463      6.948
REMARK  Name = 
REMARK  4 active torsions:
REMARK  status: ('A' for Active; 'I' for Inactive)
REMARK    1  A    between atoms: O_2  and  C_3
REMARK    2  A    between atoms: C_5  and  C_6
REMARK    3  A    between atoms: C_7  and  C_8
REMARK    4  A    between atoms: C_16  and  O_17
REMARK                            x       y       z     vdW  Elec       q    Type
REMARK                         _______ _______ _______ _____ _____    ______ ____
ROOT
ATOM      1  C   UNL     1      17.411  23.235  64.770  0.00  0.00    +0.000 A 
ATOM      2  C   UNL     1      16.553  22.886  65.807  0.00  0.00    +0.000 A 
ATOM      3  C   UNL     1      16.630  23.484  67.048  0.00  0.00    +0.000 A 
ATOM      4  C   UNL     1      17.618  24.453  67.190  0.00  0.00    +0.000 A 
ATOM      5  C   UNL     1      18.503  24.767  66.182  0.00  0.00    +0.000 A 
ATOM      6  C   UNL     1      18.475  24.056  65.013  0.00  0.00    +0.000 A 
ENDROOT
BRANCH   1   8
ATOM      7  C   UNL     1      16.078  21.990  63.108  0.00  0.00    +0.000 C 
ATOM      8  O   UNL     1      17.226  22.748  63.475  0.00  0.00    +0.000 OA
ENDBRANCH   1   8
BRANCH   3   9
ATOM      9  C   UNL     1      15.487  23.662  67.943  0.00  0.00    +0.000 C 
ATOM     10  C   UNL     1      15.034  22.545  68.512  0.00  0.00    +0.000 C 
BRANCH  10  11
ATOM     11  C   UNL     1      16.053  21.871  69.332  0.00  0.00    +0.000 A 
ATOM     12  C   UNL     1      16.194  22.372  70.622  0.00  0.00    +0.000 A 
ATOM     13  C   UNL     1      16.390  21.558  71.719  0.00  0.00    +0.000 A 
ATOM     14  C   UNL     1      16.838  20.272  71.501  0.00  0.00    +0.000 A 
ATOM     15  O   UNL     1      17.722  19.635  72.377  0.00  0.00    +0.000 OA
ATOM     16  C   UNL     1      16.645  19.738  70.243  0.00  0.00    +0.000 A 
ATOM     17  C   UNL     1      16.026  20.482  69.271  0.00  0.00    +0.000 A 
ENDBRANCH  10  11
ENDBRANCH   3   9
BRANCH   5  18
ATOM     18  O   UNL     1      19.446  25.772  66.309  0.00  0.00    +0.000 OA
ATOM     19  C   UNL     1      19.495  26.459  67.539  0.00  0.00    +0.000 C 
ENDBRANCH   5  18
TORSDOF 4
ENDMDL
MODEL 5
REMARK VINA RESULT:      -0.0     22.384     24.960
REMARK  Name = 
REMARK  4 active torsions:
REMARK  status: ('A' for Active; 'I' for Inactive)
REMARK    1  A    between atoms: O_2  and  C_3
REMARK    2  A    between atoms: C_5  and  C_6
REMARK    3  A    between atoms: C_7  and  C_8
REMARK    4  A    between atoms: C_16  and  O_17
REMARK                            x       y       z     vdW  Elec       q    Type
REMARK                         _______ _______ _______ _____ _____    ______ ____
ROOT
ATOM      1  C   UNL     1      -6.334  10.146  71.583  0.00  0.00    +0.000 A 
ATOM      2  C   UNL     1      -5.297   9.253  71.824  0.00  0.00    +0.000 A 
ATOM      3  C   UNL     1      -4.085   9.350  71.172  0.00  0.00    +0.000 A 
ATOM      4  C   UNL     1      -3.973  10.398  70.263  0.00  0.00    +0.000 A 
ATOM      5  C   UNL     1      -5.014  11.255  69.984  0.00  0.00    +0.000 A 
ATOM      6  C   UNL     1      -6.238  11.040  70.556  0.00  0.00    +0.000 A 
ENDROOT
BRANCH   1   8
ATOM      7  C   UNL     1      -7.623   9.338  73.526  0.00  0.00    +0.000 C 
ATOM      8  O   UNL     1      -7.495  10.144  72.359  0.00  0.00    +0.000 OA
ENDBRANCH   1   8
BRANCH   3   9
ATOM      9  C   UNL     1      -2.811   8.918  71.743  0.00  0.00    +0.000 C 
ATOM     10  C   UNL     1      -2.651   7.598  71.838  0.00  0.00    +0.000 C 
BRANCH  10  11
ATOM     11  C   UNL     1      -2.727   6.921  70.533  0.00  0.00    +0.000 A 
ATOM     12  C   UNL     1      -1.546   6.929  69.798  0.00  0.00    +0.000 A 
ATOM     13  C   UNL     1      -1.111   5.836  69.076  0.00  0.00    +0.000 A 
ATOM     14  C   UNL     1      -2.034   4.861  68.758  0.00  0.00    +0.000 A 
ATOM     15  O   UNL     1      -1.992   4.167  67.545  0.00  0.00    +0.000 OA
ATOM     16  C   UNL     1      -3.182   4.801  69.522  0.00  0.00    +0.000 A 
ATOM     17  C   UNL     1      -3.367   5.688  70.551  0.00  0.00    +0.000 A 
ENDBRANCH  10  11
ENDBRANCH   3   9
BRANCH   5  18
ATOM     18  O   UNL     1      -4.879  12.329  69.122  0.00  0.00    +0.000 OA
ATOM     19  C   UNL     1      -3.627  12.503  68.497  0.00  0.00    +0.000 C 
ENDBRANCH   5  18
TORSDOF 4
ENDMDL
MODEL 6
REMARK VINA RESULT:      -0.0     24.326     26.176
REMARK  Name = 
REMARK  4 active torsions:
REMARK  status: ('A' for Active; 'I' for Inactive)
REMARK    1  A    between atoms: O_2  and  C_3
REMARK    2  A    between atoms: C_5  and  C_6
REMARK    3  A    between atoms: C_7  and  C_8
REMARK    4  A    between atoms: C_16  and  O_17
REMARK                            x       y       z     vdW  Elec       q    Type
REMARK                         _______ _______ _______ _____ _____    ______ ____
ROOT
ATOM      1  C   UNL     1       8.986   5.024  80.865  0.00  0.00    +0.000 A 
ATOM      2  C   UNL     1       9.039   5.219  82.240  0.00  0.00    +0.000 A 
ATOM      3  C   UNL     1      10.238   5.289  82.920  0.00  0.00    +0.000 A 
ATOM      4  C   UNL     1      11.381   5.152  82.140  0.00  0.00    +0.000 A 
ATOM      5  C   UNL     1      11.333   4.909  80.785  0.00  0.00    +0.000 A 
ATOM      6  C   UNL     1      10.124   4.716  80.176  0.00  0.00    +0.000 A 
ENDROOT
BRANCH   1   8
ATOM      7  C   UNL     1       6.579   5.561  80.776  0.00  0.00    +0.000 C 
ATOM      8  O   UNL     1       7.784   5.117  80.161  0.00  0.00    +0.000 OA
ENDBRANCH   1   8
BRANCH   3   9
ATOM      9  C   UNL     1      10.441   6.061  84.145  0.00  0.00    +0.000 C 
ATOM     10  C   UNL     1       9.855   5.560  85.233  0.00  0.00    +0.000 C 
BRANCH  10  11
ATOM     11  C   UNL     1      10.327   4.205  85.561  0.00  0.00    +0.000 A 
ATOM     12  C   UNL     1      11.517   4.156  86.278  0.00  0.00    +0.000 A 
ATOM     13  C   UNL     1      11.728   3.261  87.308  0.00  0.00    +0.000 A 
ATOM     14  C   UNL     1      10.914   2.150  87.378  0.00  0.00    +0.000 A 
ATOM     15  O   UNL     1      11.390   0.907  87.806  0.00  0.00    +0.000 OA
ATOM     16  C   UNL     1       9.700   2.211  86.725  0.00  0.00    +0.000 A 
ATOM     17  C   UNL     1       9.346   3.346  86.042  0.00  0.00    +0.000 A 
ENDBRANCH  10  11
ENDBRANCH   3   9
BRANCH   5  18
ATOM     18  O   UNL     1      12.474   4.832  80.005  0.00  0.00    +0.000 OA
ATOM     19  C   UNL     1      13.714   4.979  80.658  0.00  0.00    +0.000 C 
ENDBRANCH   5  18
TORSDOF 4
ENDMDL
MODEL 7
REMARK VINA RESULT:      -0.0      4.878      5.454
REMARK  Name = 
REMARK  4 active torsions:
REMARK  status: ('A' for Active; 'I' for Inactive)
REMARK    1  A    between atoms: O_2  and  C_3
REMARK    2  A    between atoms: C_5  and  C_6
REMARK    3  A    between atoms: C_7  and  C_8
REMARK    4  A    between atoms: C_16  and  O_17
REMARK                            x       y       z     vdW  Elec       q    Type
REMARK                         _______ _______ _______ _____ _____    ______ ____
ROOT
ATOM      1  C   UNL     1      14.572  24.285  73.272  0.00  0.00    +0.000 A 
ATOM      2  C   UNL     1      15.134  23.019  73.379  0.00  0.00    +0.000 A 
ATOM      3  C   UNL     1      16.500  22.827  73.398  0.00  0.00    +0.000 A 
ATOM      4  C   UNL     1      17.271  23.981  73.305  0.00  0.00    +0.000 A 
ATOM      5  C   UNL     1      16.720  25.234  73.150  0.00  0.00    +0.000 A 
ATOM      6  C   UNL     1      15.366  25.363  73.003  0.00  0.00    +0.000 A 
ENDROOT
BRANCH   1   8
ATOM      7  C   UNL     1      12.317  23.445  73.819  0.00  0.00    +0.000 C 
ATOM      8  O   UNL     1      13.198  24.489  73.417  0.00  0.00    +0.000 OA
ENDBRANCH   1   8
BRANCH   3   9
ATOM      9  C   UNL     1      17.163  21.722  74.089  0.00  0.00    +0.000 C 
ATOM     10  C   UNL     1      17.005  20.525  73.524  0.00  0.00    +0.000 C 
BRANCH  10  11
ATOM     11  C   UNL     1      17.525  20.473  72.148  0.00  0.00    +0.000 A 
ATOM     12  C   UNL     1      18.894  20.251  72.046  0.00  0.00    +0.000 A 
ATOM     13  C   UNL     1      19.443  19.424  71.086  0.00  0.00    +0.000 A 
ATOM     14  C   UNL     1      18.680  19.122  69.977  0.00  0.00    +0.000 A 
ATOM     15  O   UNL     1      19.244  18.972  68.707  0.00  0.00    +0.000 OA
ATOM     16  C   UNL     1      17.314  19.275  70.087  0.00  0.00    +0.000 A 
ATOM     17  C   UNL     1      16.766  19.713  71.266  0.00  0.00    +0.000 A 
ENDBRANCH  10  11
ENDBRANCH   3   9
BRANCH   5  18
ATOM     18  O   UNL     1      17.490  26.383  73.115  0.00  0.00    +0.000 OA
ATOM     19  C   UNL     1      18.888  26.228  73.218  0.00  0.00    +0.000 C 
ENDBRANCH   5  18
TORSDOF 4
ENDMDL
MODEL 8
REMARK VINA RESULT:      -0.0     27.535     30.800
REMARK  Name = 
REMARK  4 active torsions:
REMARK  status: ('A' for Active; 'I' for Inactive)
REMARK    1  A    between atoms: O_2  and  C_3
REMARK    2  A    between atoms: C_5  and  C_6
REMARK    3  A    between atoms: C_7  and  C_8
REMARK    4  A    between atoms: C_16  and  O_17
REMARK                            x       y       z     vdW  Elec       q    Type
REMARK                         _______ _______ _______ _____ _____    ______ ____
ROOT
ATOM      1  C   UNL     1      23.848   5.118  52.666  0.00  0.00    +0.000 A 
ATOM      2  C   UNL     1      23.832   3.844  52.111  0.00  0.00    +0.000 A 
ATOM      3  C   UNL     1      24.947   3.030  52.121  0.00  0.00    +0.000 A 
ATOM      4  C   UNL     1      26.080   3.570  52.722  0.00  0.00    +0.000 A 
ATOM      5  C   UNL     1      26.116   4.850  53.229  0.00  0.00    +0.000 A 
ATOM      6  C   UNL     1      25.029   5.666  53.078  0.00  0.00    +0.000 A 
ENDROOT
BRANCH   1   8
ATOM      7  C   UNL     1      21.395   5.331  52.507  0.00  0.00    +0.000 C 
ATOM      8  O   UNL     1      22.680   5.870  52.799  0.00  0.00    +0.000 OA
ENDBRANCH   1   8
BRANCH   3   9
ATOM      9  C   UNL     1      24.895   1.569  52.151  0.00  0.00    +0.000 C 
ATOM     10  C   UNL     1      24.489   0.994  51.019  0.00  0.00    +0.000 C 
BRANCH  10  11
ATOM     11  C   UNL     1      25.356   1.316  49.874  0.00  0.00    +0.000 A 
ATOM     12  C   UNL     1      26.500   0.533  49.766  0.00  0.00    +0.000 A 
ATOM     13  C   UNL     1      26.973   0.071  48.554  0.00  0.00    +0.000 A 
ATOM     14  C   UNL     1      26.544   0.704  47.406  0.00  0.00    +0.000 A 
ATOM     15  O   UNL     1      27.380   0.884  46.301  0.00  0.00    +0.000 OA
ATOM     16  C   UNL     1      25.374   1.432  47.484  0.00  0.00    +0.000 A 
ATOM     17  C   UNL     1      24.688   1.502  48.670  0.00  0.00    +0.000 A 
ENDBRANCH  10  11
ENDBRANCH   3   9
BRANCH   5  18
ATOM     18  O   UNL     1      27.228   5.360  53.876  0.00  0.00    +0.000 OA
ATOM     19  C   UNL     1      28.361   4.527  53.968  0.00  0.00    +0.000 C 
ENDBRANCH   5  18
TORSDOF 4
ENDMDL
MODEL 9
REMARK VINA RESULT:      -0.0     12.843     14.873
REMARK  Name = 
REMARK  4 active torsions:
REMARK  status: ('A' for Active; 'I' for Inactive)
REMARK    1  A    between atoms: O_2  and  C_3
REMARK    2  A    between atoms: C_5  and  C_6
REMARK    3  A    between atoms: C_7  and  C_8
REMARK    4  A    between atoms: C_16  and  O_17
REMARK                            x       y       z     vdW  Elec       q    Type
REMARK                         _______ _______ _______ _____ _____    ______ ____
ROOT
ATOM      1  C   UNL     1      11.311  20.265  54.892  0.00  0.00    +0.000 A 
ATOM      2  C   UNL     1      11.745  21.497  54.416  0.00  0.00    +0.000 A 
ATOM      3  C   UNL     1      12.914  22.079  54.861  0.00  0.00    +0.000 A 
ATOM      4  C   UNL     1      13.624  21.353  55.813  0.00  0.00    +0.000 A 
ATOM      5  C   UNL     1      13.173  20.156  56.324  0.00  0.00    +0.000 A 
ATOM      6  C   UNL     1      11.945  19.682  55.951  0.00  0.00    +0.000 A 
ENDROOT
BRANCH   1   8
ATOM      7  C   UNL     1       9.582  20.080  53.142  0.00  0.00    +0.000 C 
ATOM      8  O   UNL     1      10.219  19.607  54.323  0.00  0.00    +0.000 OA
ENDBRANCH   1   8
BRANCH   3   9
ATOM      9  C   UNL     1      13.742  22.974  54.055  0.00  0.00    +0.000 C 
ATOM     10  C   UNL     1      13.225  24.183  53.839  0.00  0.00    +0.000 C 
BRANCH  10  11
ATOM     11  C   UNL     1      12.974  24.925  55.086  0.00  0.00    +0.000 A 
ATOM     12  C   UNL     1      14.082  25.582  55.611  0.00  0.00    +0.000 A 
ATOM     13  C   UNL     1      14.004  26.842  56.168  0.00  0.00    +0.000 A 
ATOM     14  C   UNL     1      12.764  27.300  56.565  0.00  0.00    +0.000 A 
ATOM     15  O   UNL     1      12.597  28.099  57.700  0.00  0.00    +0.000 OA
ATOM     16  C   UNL     1      11.657  26.700  56.001  0.00  0.00    +0.000 A 
ATOM     17  C   UNL     1      11.815  25.693  55.085  0.00  0.00    +0.000 A 
ENDBRANCH  10  11
ENDBRANCH   3   9
BRANCH   5  18
ATOM     18  O   UNL     1      13.911  19.411  57.227  0.00  0.00    +0.000 OA
ATOM     19  C   UNL     1      15.148  19.942  57.645  0.00  0.00    +0.000 C 
ENDBRANCH   5  18
TORSDOF 4
ENDMDL
MODEL 10
REMARK VINA RESULT:      -0.0     10.932     14.252
REMARK  Name = 
REMARK  4 active torsions:
REMARK  status: ('A' for Active; 'I' for Inactive)
REMARK    1  A    between atoms: O_2  and  C_3
REMARK    2  A    between atoms: C_5  and  C_6
REMARK    3  A    between atoms: C_7  and  C_8
REMARK    4  A    between atoms: C_16  and  O_17
REMARK                            x       y       z     vdW  Elec       q    Type
REMARK                         _______ _______ _______ _____ _____    ______ ____
ROOT
ATOM      1  C   UNL     1      11.479  18.440  55.445  0.00  0.00    +0.000 A 
ATOM      2  C   UNL     1      11.941  19.746  55.340  0.00  0.00    +0.000 A 
ATOM      3  C   UNL     1      12.965  20.223  56.132  0.00  0.00    +0.000 A 
ATOM      4  C   UNL     1      13.500  19.313  57.037  0.00  0.00    +0.000 A 
ATOM      5  C   UNL     1      13.014  18.032  57.181  0.00  0.00    +0.000 A 
ATOM      6  C   UNL     1      11.912  17.645  56.468  0.00  0.00    +0.000 A 
ENDROOT
BRANCH   1   8
ATOM      7  C   UNL     1      10.155  18.628  53.372  0.00  0.00    +0.000 C 
ATOM      8  O   UNL     1      10.560  17.914  54.536  0.00  0.00    +0.000 OA
ENDBRANCH   1   8
BRANCH   3   9
ATOM      9  C   UNL     1      13.896  21.274  55.723  0.00  0.00    +0.000 C 
ATOM     10  C   UNL     1      13.375  22.500  55.661  0.00  0.00    +0.000 C 
BRANCH  10  11
ATOM     11  C   UNL     1      12.840  22.955  56.954  0.00  0.00    +0.000 A 
ATOM     12  C   UNL     1      13.783  23.488  57.825  0.00  0.00    +0.000 A 
ATOM     13  C   UNL     1      13.532  24.599  58.605  0.00  0.00    +0.000 A 
ATOM     14  C   UNL     1      12.217  24.956  58.820  0.00  0.00    +0.000 A 
ATOM     15  O   UNL     1      11.783  25.492  60.036  0.00  0.00    +0.000 OA
ATOM     16  C   UNL     1      11.278  24.487  57.924  0.00  0.00    +0.000 A 
ATOM     17  C   UNL     1      11.669  23.701  56.871  0.00  0.00    +0.000 A 
ENDBRANCH  10  11
ENDBRANCH   3   9
BRANCH   5  18
ATOM     18  O   UNL     1      13.587  17.113  58.042  0.00  0.00    +0.000 OA
ATOM     19  C   UNL     1      14.685  17.547  58.812  0.00  0.00    +0.000 C 
ENDBRANCH   5  18
TORSDOF 4
ENDMDL
