REMARK  Name = 
REMARK  2 active torsions:
REMARK  status: ('A' for Active; 'I' for Inactive)
REMARK    1  A    between atoms: C_5  and  C_6
REMARK    2  A    between atoms: C_7  and  C_8
REMARK                            x       y       z     vdW  Elec       q    Type
REMARK                         _______ _______ _______ _____ _____    ______ ____
ROOT
ATOM      1  C   UNL     1       0.659  -1.227  -0.447  0.00  0.00    +0.000 C 
ATOM      2  C   UNL     1      -0.287  -1.392   0.444  0.00  0.00    +0.000 C 
ENDROOT
BRANCH   2   3
ATOM      3  C   UNL     1      -1.622  -0.787   0.339  0.00  0.00    +0.000 A 
ATOM      4  C   UNL     1      -2.629  -1.394  -0.402  0.00  0.00    +0.000 A 
ATOM      5  C   UNL     1      -3.751  -0.638  -0.711  0.00  0.00    +0.000 A 
ATOM      6  O   UNL     1      -4.914  -1.229  -1.210  0.00  0.00    +0.000 OA
ATOM      7  C   UNL     1      -3.887   0.674  -0.278  0.00  0.00    +0.000 A 
ATOM      8  C   UNL     1      -2.810   1.253   0.339  0.00  0.00    +0.000 A 
ATOM      9  O   UNL     1      -2.764   2.641   0.458  0.00  0.00    +0.000 OA
ATOM     10  C   UNL     1      -1.925   0.411   0.976  0.00  0.00    +0.000 A 
ENDBRANCH   2   3
BRANCH   1  15
ATOM     11  O   UNL     1       5.306   1.479   1.147  0.00  0.00    +0.000 OA
ATOM     12  C   UNL     1       4.142   0.758   0.911  0.00  0.00    +0.000 A 
ATOM     13  C   UNL     1       3.145   1.381   0.172  0.00  0.00    +0.000 A 
ATOM     14  C   UNL     1       2.271   0.642  -0.614  0.00  0.00    +0.000 A 
ATOM     15  C   UNL     1       1.973  -0.638  -0.162  0.00  0.00    +0.000 A 
ATOM     16  C   UNL     1       2.975  -1.304   0.488  0.00  0.00    +0.000 A 
ATOM     17  C   UNL     1       4.119  -0.631   0.898  0.00  0.00    +0.000 A 
ENDBRANCH   1  15
TORSDOF 2
