REMARK  Name = 
REMARK  9 active torsions:
REMARK  status: ('A' for Active; 'I' for Inactive)
REMARK    1  A    between atoms: O_2  and  C_3
REMARK    2  A    between atoms: C_6  and  C_7
REMARK    3  A    between atoms: C_8  and  C_9
REMARK    4  A    between atoms: C_11  and  O_12
REMARK    5  A    between atoms: C_14  and  O_15
REMARK    6  A    between atoms: C_17  and  O_18
REMARK    7  A    between atoms: C_22  and  O_23
REMARK    8  A    between atoms: O_23  and  C_24
REMARK    9  A    between atoms: C_24  and  C_25
REMARK                            x       y       z     vdW  Elec       q    Type
REMARK                         _______ _______ _______ _____ _____    ______ ____
ROOT
ATOM      1  C   UNL     1      -0.142  -0.609  -1.331  0.00  0.00    +0.000 C 
ATOM      2  C   UNL     1      -0.710  -1.257  -0.337  0.00  0.00    +0.000 C 
ENDROOT
BRANCH   1   6
ATOM      3  C   UNL     1       3.334   0.808   0.377  0.00  0.00    +0.000 A 
ATOM      4  C   UNL     1       2.261   1.679   0.225  0.00  0.00    +0.000 A 
ATOM      5  C   UNL     1       1.233   1.365  -0.656  0.00  0.00    +0.000 A 
ATOM      6  C   UNL     1       1.141   0.094  -1.212  0.00  0.00    +0.000 A 
ATOM      7  C   UNL     1       2.356  -0.561  -1.374  0.00  0.00    +0.000 A 
ATOM      8  C   UNL     1       3.445  -0.170  -0.605  0.00  0.00    +0.000 A 
BRANCH   3  10
ATOM      9  C   UNL     1       3.428  -0.279   2.545  0.00  0.00    +0.000 C 
ATOM     10  O   UNL     1       3.954   0.674   1.624  0.00  0.00    +0.000 OA
ENDBRANCH   3  10
BRANCH   8  11
ATOM     11  O   UNL     1       4.676  -0.818  -0.672  0.00  0.00    +0.000 OA
BRANCH  11  12
ATOM     12  C   UNL     1       5.812  -0.036  -1.028  0.00  0.00    +0.000 C 
BRANCH  12  13
ATOM     13  C   UNL     1       6.721   0.150   0.141  0.00  0.00    +0.000 C 
ATOM     14  O   UNL     1       7.135   1.309   0.429  0.00  0.00    +0.000 OA
ATOM     15  O   UNL     1       7.477  -0.967   0.502  0.00  0.00    +0.000 OA
ENDBRANCH  12  13
ENDBRANCH  11  12
ENDBRANCH   8  11
ENDBRANCH   1   6
BRANCH   2  16
ATOM     16  C   UNL     1      -2.106  -1.045   0.070  0.00  0.00    +0.000 A 
ATOM     17  C   UNL     1      -2.465  -0.025   0.943  0.00  0.00    +0.000 A 
ATOM     18  C   UNL     1      -3.704   0.600   0.873  0.00  0.00    +0.000 A 
ATOM     19  C   UNL     1      -4.732  -0.025   0.211  0.00  0.00    +0.000 A 
ATOM     20  C   UNL     1      -4.467  -1.213  -0.432  0.00  0.00    +0.000 A 
ATOM     21  C   UNL     1      -3.161  -1.656  -0.597  0.00  0.00    +0.000 A 
BRANCH  18  22
ATOM     22  O   UNL     1      -3.866   1.959   1.160  0.00  0.00    +0.000 OA
ATOM     23  C   UNL     1      -3.451   2.853   0.131  0.00  0.00    +0.000 C 
ENDBRANCH  18  22
BRANCH  19  24
ATOM     24  O   UNL     1      -6.034   0.232   0.641  0.00  0.00    +0.000 OA
ATOM     25  C   UNL     1      -6.504  -0.342   1.859  0.00  0.00    +0.000 C 
ENDBRANCH  19  24
BRANCH  20  26
ATOM     26  O   UNL     1      -5.467  -1.785  -1.204  0.00  0.00    +0.000 OA
ATOM     27  C   UNL     1      -6.165  -0.935  -2.098  0.00  0.00    +0.000 C 
ENDBRANCH  20  26
ENDBRANCH   2  16
TORSDOF 9
