MODEL 1
REMARK VINA RESULT:       0.0      0.000      0.000
REMARK  Name = 
REMARK  9 active torsions:
REMARK  status: ('A' for Active; 'I' for Inactive)
REMARK    1  A    between atoms: O_2  and  C_3
REMARK    2  A    between atoms: C_6  and  C_7
REMARK    3  A    between atoms: C_8  and  C_9
REMARK    4  A    between atoms: C_11  and  O_12
REMARK    5  A    between atoms: C_14  and  O_15
REMARK    6  A    between atoms: C_17  and  O_18
REMARK    7  A    between atoms: C_22  and  O_23
REMARK    8  A    between atoms: O_23  and  C_24
REMARK    9  A    between atoms: C_24  and  C_25
REMARK                            x       y       z     vdW  Elec       q    Type
REMARK                         _______ _______ _______ _____ _____    ______ ____
ROOT
ATOM      1  C   UNL     1      -4.451  10.703  58.771  0.00  0.00    +0.000 C 
ATOM      2  C   UNL     1      -3.647  10.055  59.586  0.00  0.00    +0.000 C 
ENDROOT
BRANCH   1   6
ATOM      3  C   UNL     1      -6.976   8.781  56.137  0.00  0.00    +0.000 A 
ATOM      4  C   UNL     1      -7.020  10.169  56.213  0.00  0.00    +0.000 A 
ATOM      5  C   UNL     1      -6.477  10.820  57.314  0.00  0.00    +0.000 A 
ATOM      6  C   UNL     1      -5.687  10.130  58.226  0.00  0.00    +0.000 A 
ATOM      7  C   UNL     1      -5.991   8.780  58.357  0.00  0.00    +0.000 A 
ATOM      8  C   UNL     1      -6.664   8.134  57.328  0.00  0.00    +0.000 A 
BRANCH   3  10
ATOM      9  C   UNL     1      -5.606   8.347  54.181  0.00  0.00    +0.000 C 
ATOM     10  O   UNL     1      -6.825   8.154  54.896  0.00  0.00    +0.000 OA
ENDBRANCH   3  10
BRANCH   8  11
ATOM     11  O   UNL     1      -6.951   6.771  57.364  0.00  0.00    +0.000 OA
BRANCH  11  12
ATOM     12  C   UNL     1      -5.911   5.892  57.782  0.00  0.00    +0.000 C 
BRANCH  12  13
ATOM     13  C   UNL     1      -5.022   5.533  56.638  0.00  0.00    +0.000 C 
ATOM     14  O   UNL     1      -3.900   6.102  56.519  0.00  0.00    +0.000 OA
ATOM     15  O   UNL     1      -5.668   5.028  55.507  0.00  0.00    +0.000 OA
ENDBRANCH  12  13
ENDBRANCH  11  12
ENDBRANCH   8  11
ENDBRANCH   1   6
BRANCH   2  16
ATOM     16  C   UNL     1      -2.200   9.930  59.360  0.00  0.00    +0.000 A 
ATOM     17  C   UNL     1      -1.471   8.864  59.873  0.00  0.00    +0.000 A 
ATOM     18  C   UNL     1      -0.348   8.363  59.227  0.00  0.00    +0.000 A 
ATOM     19  C   UNL     1       0.288   9.140  58.290  0.00  0.00    +0.000 A 
ATOM     20  C   UNL     1      -0.268  10.358  57.968  0.00  0.00    +0.000 A 
ATOM     21  C   UNL     1      -1.542  10.696  58.406  0.00  0.00    +0.000 A 
BRANCH  18  22
ATOM     22  O   UNL     1      -0.026   7.002  59.247  0.00  0.00    +0.000 OA
ATOM     23  C   UNL     1      -0.705   6.201  58.283  0.00  0.00    +0.000 C 
ENDBRANCH  18  22
BRANCH  19  24
ATOM     24  O   UNL     1       1.660   8.960  58.117  0.00  0.00    +0.000 OA
ATOM     25  C   UNL     1       2.568   9.439  59.107  0.00  0.00    +0.000 C 
ENDBRANCH  19  24
BRANCH  20  26
ATOM     26  O   UNL     1       0.299  11.092  56.936  0.00  0.00    +0.000 OA
ATOM     27  C   UNL     1      -0.168  10.835  55.623  0.00  0.00    +0.000 C 
ENDBRANCH  20  26
ENDBRANCH   2  16
TORSDOF 9
ENDMDL
MODEL 2
REMARK VINA RESULT:       0.0     13.733     16.535
REMARK  Name = 
REMARK  9 active torsions:
REMARK  status: ('A' for Active; 'I' for Inactive)
REMARK    1  A    between atoms: O_2  and  C_3
REMARK    2  A    between atoms: C_6  and  C_7
REMARK    3  A    between atoms: C_8  and  C_9
REMARK    4  A    between atoms: C_11  and  O_12
REMARK    5  A    between atoms: C_14  and  O_15
REMARK    6  A    between atoms: C_17  and  O_18
REMARK    7  A    between atoms: C_22  and  O_23
REMARK    8  A    between atoms: O_23  and  C_24
REMARK    9  A    between atoms: C_24  and  C_25
REMARK                            x       y       z     vdW  Elec       q    Type
REMARK                         _______ _______ _______ _____ _____    ______ ____
ROOT
ATOM      1  C   UNL     1       8.526   9.902  63.640  0.00  0.00    +0.000 C 
ATOM      2  C   UNL     1       8.608  11.198  63.432  0.00  0.00    +0.000 C 
ENDROOT
BRANCH   1   6
ATOM      3  C   UNL     1      11.438   7.950  65.812  0.00  0.00    +0.000 A 
ATOM      4  C   UNL     1      10.405   7.203  65.258  0.00  0.00    +0.000 A 
ATOM      5  C   UNL     1       9.236   7.834  64.850  0.00  0.00    +0.000 A 
ATOM      6  C   UNL     1       9.170   9.220  64.769  0.00  0.00    +0.000 A 
ATOM      7  C   UNL     1       9.993   9.896  65.663  0.00  0.00    +0.000 A 
ATOM      8  C   UNL     1      11.093   9.240  66.201  0.00  0.00    +0.000 A 
BRANCH   3  10
ATOM      9  C   UNL     1      13.277   7.666  64.254  0.00  0.00    +0.000 C 
ATOM     10  O   UNL     1      12.768   7.581  65.583  0.00  0.00    +0.000 OA
ENDBRANCH   3  10
BRANCH   8  11
ATOM     11  O   UNL     1      11.992   9.871  67.057  0.00  0.00    +0.000 OA
BRANCH  11  12
ATOM     12  C   UNL     1      12.432  11.178  66.701  0.00  0.00    +0.000 C 
BRANCH  12  13
ATOM     13  C   UNL     1      13.596  11.114  65.769  0.00  0.00    +0.000 C 
ATOM     14  O   UNL     1      13.417  11.315  64.534  0.00  0.00    +0.000 OA
ATOM     15  O   UNL     1      14.670  10.329  66.196  0.00  0.00    +0.000 OA
ENDBRANCH  12  13
ENDBRANCH  11  12
ENDBRANCH   8  11
ENDBRANCH   1   6
BRANCH   2  16
ATOM     16  C   UNL     1       9.008  11.784  62.145  0.00  0.00    +0.000 A 
ATOM     17  C   UNL     1       9.496  13.082  62.054  0.00  0.00    +0.000 A 
ATOM     18  C   UNL     1      10.422  13.453  61.086  0.00  0.00    +0.000 A 
ATOM     19  C   UNL     1      10.578  12.664  59.973  0.00  0.00    +0.000 A 
ATOM     20  C   UNL     1       9.868  11.487  59.903  0.00  0.00    +0.000 A 
ATOM     21  C   UNL     1       9.187  11.000  61.011  0.00  0.00    +0.000 A 
BRANCH  18  22
ATOM     22  O   UNL     1      11.417  14.402  61.338  0.00  0.00    +0.000 OA
ATOM     23  C   UNL     1      12.571  13.911  62.015  0.00  0.00    +0.000 C 
ENDBRANCH  18  22
BRANCH  19  24
ATOM     24  O   UNL     1      10.974  13.284  58.788  0.00  0.00    +0.000 OA
ATOM     25  C   UNL     1      10.048  14.096  58.069  0.00  0.00    +0.000 C 
ENDBRANCH  19  24
BRANCH  20  26
ATOM     26  O   UNL     1      10.115  10.628  58.842  0.00  0.00    +0.000 OA
ATOM     27  C   UNL     1      11.176   9.701  58.989  0.00  0.00    +0.000 C 
ENDBRANCH  20  26
ENDBRANCH   2  16
TORSDOF 9
ENDMDL
MODEL 3
REMARK VINA RESULT:       0.0     29.270     31.483
REMARK  Name = 
REMARK  9 active torsions:
REMARK  status: ('A' for Active; 'I' for Inactive)
REMARK    1  A    between atoms: O_2  and  C_3
REMARK    2  A    between atoms: C_6  and  C_7
REMARK    3  A    between atoms: C_8  and  C_9
REMARK    4  A    between atoms: C_11  and  O_12
REMARK    5  A    between atoms: C_14  and  O_15
REMARK    6  A    between atoms: C_17  and  O_18
REMARK    7  A    between atoms: C_22  and  O_23
REMARK    8  A    between atoms: O_23  and  C_24
REMARK    9  A    between atoms: C_24  and  C_25
REMARK                            x       y       z     vdW  Elec       q    Type
REMARK                         _______ _______ _______ _____ _____    ______ ____
ROOT
ATOM      1  C   UNL     1      14.185   9.624  81.840  0.00  0.00    +0.000 C 
ATOM      2  C   UNL     1      14.079  10.880  81.464  0.00  0.00    +0.000 C 
ENDROOT
BRANCH   1   6
ATOM      3  C   UNL     1      11.400   8.032  84.431  0.00  0.00    +0.000 A 
ATOM      4  C   UNL     1      12.487   7.251  84.057  0.00  0.00    +0.000 A 
ATOM      5  C   UNL     1      13.230   7.590  82.932  0.00  0.00    +0.000 A 
ATOM      6  C   UNL     1      13.051   8.821  82.311  0.00  0.00    +0.000 A 
ATOM      7  C   UNL     1      11.772   9.352  82.427  0.00  0.00    +0.000 A 
ATOM      8  C   UNL     1      10.951   8.923  83.462  0.00  0.00    +0.000 A 
BRANCH   3  10
ATOM      9  C   UNL     1      12.030   8.886  86.614  0.00  0.00    +0.000 C 
ATOM     10  O   UNL     1      11.093   8.200  85.786  0.00  0.00    +0.000 OA
ENDBRANCH   3  10
BRANCH   8  11
ATOM     11  O   UNL     1       9.680   9.453  83.675  0.00  0.00    +0.000 OA
BRANCH  11  12
ATOM     12  C   UNL     1       9.545  10.870  83.639  0.00  0.00    +0.000 C 
BRANCH  12  13
ATOM     13  C   UNL     1       9.839  11.470  84.974  0.00  0.00    +0.000 C 
ATOM     14  O   UNL     1      10.960  12.018  85.176  0.00  0.00    +0.000 OA
ATOM     15  O   UNL     1       9.124  10.935  86.047  0.00  0.00    +0.000 OA
ENDBRANCH  12  13
ENDBRANCH  11  12
ENDBRANCH   8  11
ENDBRANCH   1   6
BRANCH   2  16
ATOM     16  C   UNL     1      14.940  11.952  81.983  0.00  0.00    +0.000 A 
ATOM     17  C   UNL     1      14.526  13.279  81.998  0.00  0.00    +0.000 A 
ATOM     18  C   UNL     1      14.956  14.173  82.971  0.00  0.00    +0.000 A 
ATOM     19  C   UNL     1      16.084  13.879  83.697  0.00  0.00    +0.000 A 
ATOM     20  C   UNL     1      16.697  12.664  83.487  0.00  0.00    +0.000 A 
ATOM     21  C   UNL     1      16.077  11.676  82.733  0.00  0.00    +0.000 A 
BRANCH  18  22
ATOM     22  O   UNL     1      14.129  15.187  83.463  0.00  0.00    +0.000 OA
ATOM     23  C   UNL     1      13.256  14.801  84.522  0.00  0.00    +0.000 C 
ENDBRANCH  18  22
BRANCH  19  24
ATOM     24  O   UNL     1      16.848  14.946  84.171  0.00  0.00    +0.000 OA
ATOM     25  C   UNL     1      17.639  15.710  83.263  0.00  0.00    +0.000 C 
ENDBRANCH  19  24
BRANCH  20  26
ATOM     26  O   UNL     1      17.761  12.311  84.303  0.00  0.00    +0.000 OA
ATOM     27  C   UNL     1      17.456  11.674  85.532  0.00  0.00    +0.000 C 
ENDBRANCH  20  26
ENDBRANCH   2  16
TORSDOF 9
ENDMDL
MODEL 4
REMARK VINA RESULT:       0.0     13.421     17.012
REMARK  Name = 
REMARK  9 active torsions:
REMARK  status: ('A' for Active; 'I' for Inactive)
REMARK    1  A    between atoms: O_2  and  C_3
REMARK    2  A    between atoms: C_6  and  C_7
REMARK    3  A    between atoms: C_8  and  C_9
REMARK    4  A    between atoms: C_11  and  O_12
REMARK    5  A    between atoms: C_14  and  O_15
REMARK    6  A    between atoms: C_17  and  O_18
REMARK    7  A    between atoms: C_22  and  O_23
REMARK    8  A    between atoms: O_23  and  C_24
REMARK    9  A    between atoms: C_24  and  C_25
REMARK                            x       y       z     vdW  Elec       q    Type
REMARK                         _______ _______ _______ _____ _____    ______ ____
ROOT
ATOM      1  C   UNL     1       3.619  24.317  58.657  0.00  0.00    +0.000 C 
ATOM      2  C   UNL     1       2.705  23.374  58.593  0.00  0.00    +0.000 C 
ENDROOT
BRANCH   1   6
ATOM      3  C   UNL     1       7.541  23.287  59.409  0.00  0.00    +0.000 A 
ATOM      4  C   UNL     1       7.205  24.635  59.343  0.00  0.00    +0.000 A 
ATOM      5  C   UNL     1       6.015  25.023  58.740  0.00  0.00    +0.000 A 
ATOM      6  C   UNL     1       5.047  24.080  58.412  0.00  0.00    +0.000 A 
ATOM      7  C   UNL     1       5.542  22.816  58.114  0.00  0.00    +0.000 A 
ATOM      8  C   UNL     1       6.797  22.451  58.584  0.00  0.00    +0.000 A 
BRANCH   3  10
ATOM      9  C   UNL     1       7.611  22.828  61.792  0.00  0.00    +0.000 C 
ATOM     10  O   UNL     1       8.244  22.796  60.515  0.00  0.00    +0.000 OA
ENDBRANCH   3  10
BRANCH   8  11
ATOM     11  O   UNL     1       7.332  21.183  58.374  0.00  0.00    +0.000 OA
BRANCH  11  12
ATOM     12  C   UNL     1       6.487  20.063  58.623  0.00  0.00    +0.000 C 
BRANCH  12  13
ATOM     13  C   UNL     1       6.535  19.667  60.061  0.00  0.00    +0.000 C 
ATOM     14  O   UNL     1       5.590  20.001  60.830  0.00  0.00    +0.000 OA
ATOM     15  O   UNL     1       7.810  19.444  60.584  0.00  0.00    +0.000 OA
ENDBRANCH  12  13
ENDBRANCH  11  12
ENDBRANCH   8  11
ENDBRANCH   1   6
BRANCH   2  16
ATOM     16  C   UNL     1       1.731  23.122  59.664  0.00  0.00    +0.000 A 
ATOM     17  C   UNL     1       1.133  21.878  59.829  0.00  0.00    +0.000 A 
ATOM     18  C   UNL     1       0.745  21.410  61.079  0.00  0.00    +0.000 A 
ATOM     19  C   UNL     1       0.585  22.304  62.108  0.00  0.00    +0.000 A 
ATOM     20  C   UNL     1       0.900  23.625  61.880  0.00  0.00    +0.000 A 
ATOM     21  C   UNL     1       1.565  24.007  60.722  0.00  0.00    +0.000 A 
BRANCH  18  22
ATOM     22  O   UNL     1       0.822  20.056  61.419  0.00  0.00    +0.000 OA
ATOM     23  C   UNL     1       2.093  19.616  61.888  0.00  0.00    +0.000 C 
ENDBRANCH  18  22
BRANCH  19  24
ATOM     24  O   UNL     1      -0.347  21.996  63.099  0.00  0.00    +0.000 OA
ATOM     25  C   UNL     1      -1.742  22.086  62.812  0.00  0.00    +0.000 C 
ENDBRANCH  19  24
BRANCH  20  26
ATOM     26  O   UNL     1       0.859  24.509  62.948  0.00  0.00    +0.000 OA
ATOM     27  C   UNL     1       2.024  24.618  63.747  0.00  0.00    +0.000 C 
ENDBRANCH  20  26
ENDBRANCH   2  16
TORSDOF 9
ENDMDL
MODEL 5
REMARK VINA RESULT:       0.0     33.184     36.702
REMARK  Name = 
REMARK  9 active torsions:
REMARK  status: ('A' for Active; 'I' for Inactive)
REMARK    1  A    between atoms: O_2  and  C_3
REMARK    2  A    between atoms: C_6  and  C_7
REMARK    3  A    between atoms: C_8  and  C_9
REMARK    4  A    between atoms: C_11  and  O_12
REMARK    5  A    between atoms: C_14  and  O_15
REMARK    6  A    between atoms: C_17  and  O_18
REMARK    7  A    between atoms: C_22  and  O_23
REMARK    8  A    between atoms: O_23  and  C_24
REMARK    9  A    between atoms: C_24  and  C_25
REMARK                            x       y       z     vdW  Elec       q    Type
REMARK                         _______ _______ _______ _____ _____    ______ ____
ROOT
ATOM      1  C   UNL     1      27.051  30.092  68.640  0.00  0.00    +0.000 C 
ATOM      2  C   UNL     1      26.302  29.752  69.666  0.00  0.00    +0.000 C 
ENDROOT
BRANCH   1   6
ATOM      3  C   UNL     1      25.723  29.345  64.808  0.00  0.00    +0.000 A 
ATOM      4  C   UNL     1      27.002  29.863  64.983  0.00  0.00    +0.000 A 
ATOM      5  C   UNL     1      27.347  30.465  66.187  0.00  0.00    +0.000 A 
ATOM      6  C   UNL     1      26.518  30.352  67.298  0.00  0.00    +0.000 A 
ATOM      7  C   UNL     1      25.166  30.217  67.005  0.00  0.00    +0.000 A 
ATOM      8  C   UNL     1      24.787  29.752  65.752  0.00  0.00    +0.000 A 
BRANCH   3  10
ATOM      9  C   UNL     1      26.108  26.972  64.474  0.00  0.00    +0.000 C 
ATOM     10  O   UNL     1      25.534  28.199  64.028  0.00  0.00    +0.000 OA
ENDBRANCH   3  10
BRANCH   8  11
ATOM     11  O   UNL     1      23.454  29.537  65.408  0.00  0.00    +0.000 OA
BRANCH  11  12
ATOM     12  C   UNL     1      22.641  28.832  66.341  0.00  0.00    +0.000 C 
BRANCH  12  13
ATOM     13  C   UNL     1      22.758  27.357  66.146  0.00  0.00    +0.000 C 
ATOM     14  O   UNL     1      23.484  26.681  66.929  0.00  0.00    +0.000 OA
ATOM     15  O   UNL     1      22.523  26.899  64.848  0.00  0.00    +0.000 OA
ENDBRANCH  12  13
ENDBRANCH  11  12
ENDBRANCH   8  11
ENDBRANCH   1   6
BRANCH   2  16
ATOM     16  C   UNL     1      26.581  28.586  70.517  0.00  0.00    +0.000 A 
ATOM     17  C   UNL     1      25.575  27.948  71.233  0.00  0.00    +0.000 A 
ATOM     18  C   UNL     1      25.621  26.587  71.509  0.00  0.00    +0.000 A 
ATOM     19  C   UNL     1      26.822  25.927  71.425  0.00  0.00    +0.000 A 
ATOM     20  C   UNL     1      27.922  26.628  70.987  0.00  0.00    +0.000 A 
ATOM     21  C   UNL     1      27.784  27.896  70.436  0.00  0.00    +0.000 A 
BRANCH  18  22
ATOM     22  O   UNL     1      24.465  25.800  71.552  0.00  0.00    +0.000 OA
ATOM     23  C   UNL     1      23.995  25.338  70.289  0.00  0.00    +0.000 C 
ENDBRANCH  18  22
BRANCH  19  24
ATOM     24  O   UNL     1      27.015  24.820  72.252  0.00  0.00    +0.000 OA
ATOM     25  C   UNL     1      27.223  25.008  73.650  0.00  0.00    +0.000 C 
ENDBRANCH  19  24
BRANCH  20  26
ATOM     26  O   UNL     1      29.108  25.939  70.783  0.00  0.00    +0.000 OA
ATOM     27  C   UNL     1      29.294  25.325  69.519  0.00  0.00    +0.000 C 
ENDBRANCH  20  26
ENDBRANCH   2  16
TORSDOF 9
ENDMDL
MODEL 6
REMARK VINA RESULT:       0.0     18.057     20.379
REMARK  Name = 
REMARK  9 active torsions:
REMARK  status: ('A' for Active; 'I' for Inactive)
REMARK    1  A    between atoms: O_2  and  C_3
REMARK    2  A    between atoms: C_6  and  C_7
REMARK    3  A    between atoms: C_8  and  C_9
REMARK    4  A    between atoms: C_11  and  O_12
REMARK    5  A    between atoms: C_14  and  O_15
REMARK    6  A    between atoms: C_17  and  O_18
REMARK    7  A    between atoms: C_22  and  O_23
REMARK    8  A    between atoms: O_23  and  C_24
REMARK    9  A    between atoms: C_24  and  C_25
REMARK                            x       y       z     vdW  Elec       q    Type
REMARK                         _______ _______ _______ _____ _____    ______ ____
ROOT
ATOM      1  C   UNL     1      12.112  15.235  52.364  0.00  0.00    +0.000 C 
ATOM      2  C   UNL     1      13.009  15.967  52.989  0.00  0.00    +0.000 C 
ENDROOT
BRANCH   1   6
ATOM      3  C   UNL     1      12.884  13.887  48.543  0.00  0.00    +0.000 A 
ATOM      4  C   UNL     1      11.634  13.637  49.100  0.00  0.00    +0.000 A 
ATOM      5  C   UNL     1      11.456  13.737  50.475  0.00  0.00    +0.000 A 
ATOM      6  C   UNL     1      12.440  14.305  51.277  0.00  0.00    +0.000 A 
ATOM      7  C   UNL     1      13.737  14.158  50.801  0.00  0.00    +0.000 A 
ATOM      8  C   UNL     1      13.939  13.914  49.448  0.00  0.00    +0.000 A 
BRANCH   3  10
ATOM      9  C   UNL     1      12.506  15.817  47.122  0.00  0.00    +0.000 C 
ATOM     10  O   UNL     1      12.980  14.482  47.281  0.00  0.00    +0.000 OA
ENDBRANCH   3  10
BRANCH   8  11
ATOM     11  O   UNL     1      15.212  13.814  48.891  0.00  0.00    +0.000 OA
BRANCH  11  12
ATOM     12  C   UNL     1      16.166  14.809  49.248  0.00  0.00    +0.000 C 
BRANCH  12  13
ATOM     13  C   UNL     1      16.052  16.004  48.362  0.00  0.00    +0.000 C 
ATOM     14  O   UNL     1      15.462  17.038  48.785  0.00  0.00    +0.000 OA
ATOM     15  O   UNL     1      16.102  15.745  46.990  0.00  0.00    +0.000 OA
ENDBRANCH  12  13
ENDBRANCH  11  12
ENDBRANCH   8  11
ENDBRANCH   1   6
BRANCH   2  16
ATOM     16  C   UNL     1      12.879  17.419  53.172  0.00  0.00    +0.000 A 
ATOM     17  C   UNL     1      13.990  18.235  53.348  0.00  0.00    +0.000 A 
ATOM     18  C   UNL     1      14.010  19.554  52.913  0.00  0.00    +0.000 A 
ATOM     19  C   UNL     1      12.820  20.191  52.657  0.00  0.00    +0.000 A 
ATOM     20  C   UNL     1      11.656  19.466  52.762  0.00  0.00    +0.000 A 
ATOM     21  C   UNL     1      11.689  18.084  52.904  0.00  0.00    +0.000 A 
BRANCH  18  22
ATOM     22  O   UNL     1      15.172  20.155  52.420  0.00  0.00    +0.000 OA
ATOM     23  C   UNL     1      15.434  19.931  51.037  0.00  0.00    +0.000 C 
ENDBRANCH  18  22
BRANCH  19  24
ATOM     24  O   UNL     1      12.771  21.574  52.839  0.00  0.00    +0.000 OA
ATOM     25  C   UNL     1      12.770  22.115  54.159  0.00  0.00    +0.000 C 
ENDBRANCH  19  24
BRANCH  20  26
ATOM     26  O   UNL     1      10.464  20.068  52.386  0.00  0.00    +0.000 OA
ATOM     27  C   UNL     1      10.103  19.997  51.018  0.00  0.00    +0.000 C 
ENDBRANCH  20  26
ENDBRANCH   2  16
TORSDOF 9
ENDMDL
MODEL 7
REMARK VINA RESULT:       0.0     20.311     22.729
REMARK  Name = 
REMARK  9 active torsions:
REMARK  status: ('A' for Active; 'I' for Inactive)
REMARK    1  A    between atoms: O_2  and  C_3
REMARK    2  A    between atoms: C_6  and  C_7
REMARK    3  A    between atoms: C_8  and  C_9
REMARK    4  A    between atoms: C_11  and  O_12
REMARK    5  A    between atoms: C_14  and  O_15
REMARK    6  A    between atoms: C_17  and  O_18
REMARK    7  A    between atoms: C_22  and  O_23
REMARK    8  A    between atoms: O_23  and  C_24
REMARK    9  A    between atoms: C_24  and  C_25
REMARK                            x       y       z     vdW  Elec       q    Type
REMARK                         _______ _______ _______ _____ _____    ______ ____
ROOT
ATOM      1  C   UNL     1       0.988  21.070  76.035  0.00  0.00    +0.000 C 
ATOM      2  C   UNL     1       0.142  20.237  76.600  0.00  0.00    +0.000 C 
ENDROOT
BRANCH   1   6
ATOM      3  C   UNL     1       3.709  19.661  73.274  0.00  0.00    +0.000 A 
ATOM      4  C   UNL     1       3.772  20.997  73.653  0.00  0.00    +0.000 A 
ATOM      5  C   UNL     1       2.682  21.594  74.274  0.00  0.00    +0.000 A 
ATOM      6  C   UNL     1       1.619  20.823  74.733  0.00  0.00    +0.000 A 
ATOM      7  C   UNL     1       1.397  19.652  74.018  0.00  0.00    +0.000 A 
ATOM      8  C   UNL     1       2.433  19.109  73.268  0.00  0.00    +0.000 A 
BRANCH   3  10
ATOM      9  C   UNL     1       5.434  18.591  74.604  0.00  0.00    +0.000 C 
ATOM     10  O   UNL     1       4.857  18.864  73.329  0.00  0.00    +0.000 OA
ENDBRANCH   3  10
BRANCH   8  11
ATOM     11  O   UNL     1       2.300  17.908  72.574  0.00  0.00    +0.000 OA
BRANCH  11  12
ATOM     12  C   UNL     1       1.673  16.824  73.250  0.00  0.00    +0.000 C 
BRANCH  12  13
ATOM     13  C   UNL     1       2.662  16.056  74.063  0.00  0.00    +0.000 C 
ATOM     14  O   UNL     1       2.702  16.224  75.315  0.00  0.00    +0.000 OA
ATOM     15  O   UNL     1       3.805  15.633  73.381  0.00  0.00    +0.000 OA
ENDBRANCH  12  13
ENDBRANCH  11  12
ENDBRANCH   8  11
ENDBRANCH   1   6
BRANCH   2  16
ATOM     16  C   UNL     1       0.283  19.760  77.983  0.00  0.00    +0.000 A 
ATOM     17  C   UNL     1      -0.379  18.625  78.435  0.00  0.00    +0.000 A 
ATOM     18  C   UNL     1       0.153  17.808  79.425  0.00  0.00    +0.000 A 
ATOM     19  C   UNL     1       1.139  18.304  80.243  0.00  0.00    +0.000 A 
ATOM     20  C   UNL     1       1.620  19.569  79.991  0.00  0.00    +0.000 A 
ATOM     21  C   UNL     1       1.283  20.238  78.821  0.00  0.00    +0.000 A 
BRANCH  18  22
ATOM     22  O   UNL     1      -0.032  16.422  79.422  0.00  0.00    +0.000 OA
ATOM     23  C   UNL     1       0.770  15.702  78.491  0.00  0.00    +0.000 C 
ENDBRANCH  18  22
BRANCH  19  24
ATOM     24  O   UNL     1       1.225  17.797  81.539  0.00  0.00    +0.000 OA
ATOM     25  C   UNL     1       0.247  18.165  82.510  0.00  0.00    +0.000 C 
ENDBRANCH  19  24
BRANCH  20  26
ATOM     26  O   UNL     1       2.698  20.027  80.733  0.00  0.00    +0.000 OA
ATOM     27  C   UNL     1       3.995  19.693  80.271  0.00  0.00    +0.000 C 
ENDBRANCH  20  26
ENDBRANCH   2  16
TORSDOF 9
ENDMDL
MODEL 8
REMARK VINA RESULT:       0.0     20.202     23.998
REMARK  Name = 
REMARK  9 active torsions:
REMARK  status: ('A' for Active; 'I' for Inactive)
REMARK    1  A    between atoms: O_2  and  C_3
REMARK    2  A    between atoms: C_6  and  C_7
REMARK    3  A    between atoms: C_8  and  C_9
REMARK    4  A    between atoms: C_11  and  O_12
REMARK    5  A    between atoms: C_14  and  O_15
REMARK    6  A    between atoms: C_17  and  O_18
REMARK    7  A    between atoms: C_22  and  O_23
REMARK    8  A    between atoms: O_23  and  C_24
REMARK    9  A    between atoms: C_24  and  C_25
REMARK                            x       y       z     vdW  Elec       q    Type
REMARK                         _______ _______ _______ _____ _____    ______ ____
ROOT
ATOM      1  C   UNL     1      19.412  10.645  67.612  0.00  0.00    +0.000 C 
ATOM      2  C   UNL     1      18.235  10.993  67.138  0.00  0.00    +0.000 C 
ENDROOT
BRANCH   1   6
ATOM      3  C   UNL     1      21.009   6.971  66.632  0.00  0.00    +0.000 A 
ATOM      4  C   UNL     1      21.694   7.779  67.533  0.00  0.00    +0.000 A 
ATOM      5  C   UNL     1      21.403   9.136  67.608  0.00  0.00    +0.000 A 
ATOM      6  C   UNL     1      20.284   9.655  66.967  0.00  0.00    +0.000 A 
ATOM      7  C   UNL     1      19.898   8.972  65.820  0.00  0.00    +0.000 A 
ATOM      8  C   UNL     1      20.298   7.652  65.650  0.00  0.00    +0.000 A 
BRANCH   3  10
ATOM      9  C   UNL     1      19.838   5.391  68.054  0.00  0.00    +0.000 C 
ATOM     10  O   UNL     1      20.721   5.643  66.963  0.00  0.00    +0.000 OA
ENDBRANCH   3  10
BRANCH   8  11
ATOM     11  O   UNL     1      19.902   6.888  64.555  0.00  0.00    +0.000 OA
BRANCH  11  12
ATOM     12  C   UNL     1      18.524   6.921  64.195  0.00  0.00    +0.000 C 
BRANCH  12  13
ATOM     13  C   UNL     1      17.745   5.911  64.970  0.00  0.00    +0.000 C 
ATOM     14  O   UNL     1      17.046   6.285  65.955  0.00  0.00    +0.000 OA
ATOM     15  O   UNL     1      18.235   4.604  64.924  0.00  0.00    +0.000 OA
ENDBRANCH  12  13
ENDBRANCH  11  12
ENDBRANCH   8  11
ENDBRANCH   1   6
BRANCH   2  16
ATOM     16  C   UNL     1      17.009  10.996  67.949  0.00  0.00    +0.000 A 
ATOM     17  C   UNL     1      15.753  10.845  67.373  0.00  0.00    +0.000 A 
ATOM     18  C   UNL     1      14.703  10.236  68.050  0.00  0.00    +0.000 A 
ATOM     19  C   UNL     1      14.764  10.123  69.417  0.00  0.00    +0.000 A 
ATOM     20  C   UNL     1      15.908  10.545  70.056  0.00  0.00    +0.000 A 
ATOM     21  C   UNL     1      17.049  10.867  69.332  0.00  0.00    +0.000 A 
BRANCH  18  22
ATOM     22  O   UNL     1      13.750   9.455  67.389  0.00  0.00    +0.000 OA
ATOM     23  C   UNL     1      14.120   8.096  67.172  0.00  0.00    +0.000 C 
ENDBRANCH  18  22
BRANCH  19  24
ATOM     24  O   UNL     1      13.561  10.119  70.123  0.00  0.00    +0.000 OA
ATOM     25  C   UNL     1      12.817  11.327  70.263  0.00  0.00    +0.000 C 
ENDBRANCH  19  24
BRANCH  20  26
ATOM     26  O   UNL     1      16.025  10.321  71.419  0.00  0.00    +0.000 OA
ATOM     27  C   UNL     1      16.547   9.068  71.830  0.00  0.00    +0.000 C 
ENDBRANCH  20  26
ENDBRANCH   2  16
TORSDOF 9
ENDMDL
MODEL 9
REMARK VINA RESULT:       0.0     25.356     27.613
REMARK  Name = 
REMARK  9 active torsions:
REMARK  status: ('A' for Active; 'I' for Inactive)
REMARK    1  A    between atoms: O_2  and  C_3
REMARK    2  A    between atoms: C_6  and  C_7
REMARK    3  A    between atoms: C_8  and  C_9
REMARK    4  A    between atoms: C_11  and  O_12
REMARK    5  A    between atoms: C_14  and  O_15
REMARK    6  A    between atoms: C_17  and  O_18
REMARK    7  A    between atoms: C_22  and  O_23
REMARK    8  A    between atoms: O_23  and  C_24
REMARK    9  A    between atoms: C_24  and  C_25
REMARK                            x       y       z     vdW  Elec       q    Type
REMARK                         _______ _______ _______ _____ _____    ______ ____
ROOT
ATOM      1  C   UNL     1       6.123  31.792  56.282  0.00  0.00    +0.000 C 
ATOM      2  C   UNL     1       4.880  31.836  56.711  0.00  0.00    +0.000 C 
ENDROOT
BRANCH   1   6
ATOM      3  C   UNL     1       9.182  33.004  58.768  0.00  0.00    +0.000 A 
ATOM      4  C   UNL     1       9.486  32.653  57.458  0.00  0.00    +0.000 A 
ATOM      5  C   UNL     1       8.582  31.904  56.714  0.00  0.00    +0.000 A 
ATOM      6  C   UNL     1       7.286  31.699  57.173  0.00  0.00    +0.000 A 
ATOM      7  C   UNL     1       7.152  31.688  58.557  0.00  0.00    +0.000 A 
ATOM      8  C   UNL     1       8.121  32.307  59.336  0.00  0.00    +0.000 A 
BRANCH   3  10
ATOM      9  C   UNL     1       9.099  35.429  58.709  0.00  0.00    +0.000 C 
ATOM     10  O   UNL     1       9.617  34.230  59.282  0.00  0.00    +0.000 OA
ENDBRANCH   3  10
BRANCH   8  11
ATOM     11  O   UNL     1       8.024  32.386  60.723  0.00  0.00    +0.000 OA
BRANCH  11  12
ATOM     12  C   UNL     1       6.773  32.790  61.273  0.00  0.00    +0.000 C 
BRANCH  12  13
ATOM     13  C   UNL     1       6.677  34.277  61.347  0.00  0.00    +0.000 C 
ATOM     14  O   UNL     1       6.002  34.902  60.480  0.00  0.00    +0.000 OA
ATOM     15  O   UNL     1       7.731  34.919  62.001  0.00  0.00    +0.000 OA
ENDBRANCH  12  13
ENDBRANCH  11  12
ENDBRANCH   8  11
ENDBRANCH   1   6
BRANCH   2  16
ATOM     16  C   UNL     1       3.917  32.861  56.287  0.00  0.00    +0.000 A 
ATOM     17  C   UNL     1       2.833  33.217  57.080  0.00  0.00    +0.000 A 
ATOM     18  C   UNL     1       2.303  34.501  57.066  0.00  0.00    +0.000 A 
ATOM     19  C   UNL     1       2.577  35.327  56.004  0.00  0.00    +0.000 A 
ATOM     20  C   UNL     1       3.440  34.874  55.032  0.00  0.00    +0.000 A 
ATOM     21  C   UNL     1       4.183  33.716  55.224  0.00  0.00    +0.000 A 
BRANCH  18  22
ATOM     22  O   UNL     1       1.777  35.099  58.216  0.00  0.00    +0.000 OA
ATOM     23  C   UNL     1       2.730  35.734  59.063  0.00  0.00    +0.000 C 
ENDBRANCH  18  22
BRANCH  19  24
ATOM     24  O   UNL     1       1.624  36.287  55.664  0.00  0.00    +0.000 OA
ATOM     25  C   UNL     1       0.409  35.888  55.032  0.00  0.00    +0.000 C 
ENDBRANCH  19  24
BRANCH  20  26
ATOM     26  O   UNL     1       3.817  35.747  54.022  0.00  0.00    +0.000 OA
ATOM     27  C   UNL     1       4.925  36.594  54.275  0.00  0.00    +0.000 C 
ENDBRANCH  20  26
ENDBRANCH   2  16
TORSDOF 9
ENDMDL
MODEL 10
REMARK VINA RESULT:       0.0     17.697     21.566
REMARK  Name = 
REMARK  9 active torsions:
REMARK  status: ('A' for Active; 'I' for Inactive)
REMARK    1  A    between atoms: O_2  and  C_3
REMARK    2  A    between atoms: C_6  and  C_7
REMARK    3  A    between atoms: C_8  and  C_9
REMARK    4  A    between atoms: C_11  and  O_12
REMARK    5  A    between atoms: C_14  and  O_15
REMARK    6  A    between atoms: C_17  and  O_18
REMARK    7  A    between atoms: C_22  and  O_23
REMARK    8  A    between atoms: O_23  and  C_24
REMARK    9  A    between atoms: C_24  and  C_25
REMARK                            x       y       z     vdW  Elec       q    Type
REMARK                         _______ _______ _______ _____ _____    ______ ____
ROOT
ATOM      1  C   UNL     1       4.778  26.699  64.142  0.00  0.00    +0.000 C 
ATOM      2  C   UNL     1       4.930  25.852  63.148  0.00  0.00    +0.000 C 
ENDROOT
BRANCH   1   6
ATOM      3  C   UNL     1       8.032  28.802  65.556  0.00  0.00    +0.000 A 
ATOM      4  C   UNL     1       6.812  28.941  66.209  0.00  0.00    +0.000 A 
ATOM      5  C   UNL     1       5.637  28.561  65.570  0.00  0.00    +0.000 A 
ATOM      6  C   UNL     1       5.679  27.832  64.387  0.00  0.00    +0.000 A 
ATOM      7  C   UNL     1       6.800  28.063  63.598  0.00  0.00    +0.000 A 
ATOM      8  C   UNL     1       7.947  28.581  64.186  0.00  0.00    +0.000 A 
BRANCH   3  10
ATOM      9  C   UNL     1       9.248  27.206  66.920  0.00  0.00    +0.000 C 
ATOM     10  O   UNL     1       9.181  28.481  66.286  0.00  0.00    +0.000 OA
ENDBRANCH   3  10
BRANCH   8  11
ATOM     11  O   UNL     1       9.125  28.784  63.471  0.00  0.00    +0.000 OA
BRANCH  11  12
ATOM     12  C   UNL     1       9.563  27.734  62.614  0.00  0.00    +0.000 C 
BRANCH  12  13
ATOM     13  C   UNL     1      10.388  26.741  63.364  0.00  0.00    +0.000 C 
ATOM     14  O   UNL     1       9.870  25.644  63.720  0.00  0.00    +0.000 OA
ATOM     15  O   UNL     1      11.461  27.269  64.085  0.00  0.00    +0.000 OA
ENDBRANCH  12  13
ENDBRANCH  11  12
ENDBRANCH   8  11
ENDBRANCH   1   6
BRANCH   2  16
ATOM     16  C   UNL     1       4.947  24.393  63.327  0.00  0.00    +0.000 A 
ATOM     17  C   UNL     1       5.583  23.553  62.421  0.00  0.00    +0.000 A 
ATOM     18  C   UNL     1       6.158  22.351  62.812  0.00  0.00    +0.000 A 
ATOM     19  C   UNL     1       5.779  21.785  64.004  0.00  0.00    +0.000 A 
ATOM     20  C   UNL     1       4.902  22.479  64.807  0.00  0.00    +0.000 A 
ATOM     21  C   UNL     1       4.582  23.802  64.531  0.00  0.00    +0.000 A 
BRANCH  18  22
ATOM     22  O   UNL     1       7.323  21.858  62.216  0.00  0.00    +0.000 OA
ATOM     23  C   UNL     1       8.543  22.353  62.762  0.00  0.00    +0.000 C 
ENDBRANCH  18  22
BRANCH  19  24
ATOM     24  O   UNL     1       5.831  20.395  64.110  0.00  0.00    +0.000 OA
ATOM     25  C   UNL     1       4.865  19.595  63.430  0.00  0.00    +0.000 C 
ENDBRANCH  19  24
BRANCH  20  26
ATOM     26  O   UNL     1       4.612  21.972  66.064  0.00  0.00    +0.000 OA
ATOM     27  C   UNL     1       5.485  22.323  67.124  0.00  0.00    +0.000 C 
ENDBRANCH  20  26
ENDBRANCH   2  16
TORSDOF 9
ENDMDL
