REMARK  Name = 
REMARK  5 active torsions:
REMARK  status: ('A' for Active; 'I' for Inactive)
REMARK    1  A    between atoms: O_2  and  C_3
REMARK    2  A    between atoms: C_5  and  C_6
REMARK    3  A    between atoms: C_7  and  C_9
REMARK    4  A    between atoms: C_19  and  O_20
REMARK    5  A    between atoms: C_22  and  O_23
REMARK                            x       y       z     vdW  Elec       q    Type
REMARK                         _______ _______ _______ _____ _____    ______ ____
ROOT
ATOM      1  C   UNL     1      -2.800   1.300  -0.275  0.00  0.00    +0.000 A 
ATOM      2  C   UNL     1      -1.556   0.737  -0.483  0.00  0.00    +0.000 A 
ATOM      3  C   UNL     1      -1.307  -0.556  -0.038  0.00  0.00    +0.000 A 
ATOM      4  C   UNL     1      -2.407  -1.359   0.236  0.00  0.00    +0.000 A 
ATOM      5  C   UNL     1      -3.600  -0.790   0.650  0.00  0.00    +0.000 A 
ATOM      6  C   UNL     1      -3.771   0.555   0.382  0.00  0.00    +0.000 A 
ENDROOT
BRANCH   3   7
ATOM      7  C   UNL     1       0.025  -1.060   0.226  0.00  0.00    +0.000 C 
ATOM      8  C   UNL     1       0.975  -1.190  -0.671  0.00  0.00    +0.000 C 
ATOM      9  C   UNL     1       0.668  -0.718  -2.057  0.00  0.00    +0.000 C 
BRANCH   8  10
ATOM     10  C   UNL     1       2.385  -1.295  -0.276  0.00  0.00    +0.000 A 
ATOM     11  C   UNL     1       2.759  -1.360   1.061  0.00  0.00    +0.000 A 
ATOM     12  C   UNL     1       3.872  -0.666   1.520  0.00  0.00    +0.000 A 
ATOM     13  C   UNL     1       4.716  -0.027   0.621  0.00  0.00    +0.000 A 
ATOM     14  C   UNL     1       4.601  -0.435  -0.701  0.00  0.00    +0.000 A 
ATOM     15  C   UNL     1       3.416  -0.999  -1.159  0.00  0.00    +0.000 A 
ATOM     16  O   UNL     1       5.600   0.259  -1.372  0.00  0.00    +0.000 OA
ATOM     17  C   UNL     1       6.052   1.358  -0.595  0.00  0.00    +0.000 C 
ATOM     18  O   UNL     1       5.475   1.142   0.689  0.00  0.00    +0.000 OA
ENDBRANCH   8  10
ENDBRANCH   3   7
BRANCH   1  20
ATOM     19  C   UNL     1      -2.397   3.466  -1.386  0.00  0.00    +0.000 C 
ATOM     20  O   UNL     1      -3.244   2.417  -0.989  0.00  0.00    +0.000 OA
ENDBRANCH   1  20
BRANCH   5  21
ATOM     21  O   UNL     1      -4.690  -1.560   1.062  0.00  0.00    +0.000 OA
ATOM     22  C   UNL     1      -5.512  -2.178   0.075  0.00  0.00    +0.000 C 
ENDBRANCH   5  21
BRANCH   6  23
ATOM     23  O   UNL     1      -4.760   1.260   1.075  0.00  0.00    +0.000 OA
ATOM     24  C   UNL     1      -4.499   1.698   2.406  0.00  0.00    +0.000 C 
ENDBRANCH   6  23
TORSDOF 5
