MODEL 1
REMARK VINA RESULT:      -0.0      0.000      0.000
REMARK  Name = 
REMARK  5 active torsions:
REMARK  status: ('A' for Active; 'I' for Inactive)
REMARK    1  A    between atoms: O_2  and  C_3
REMARK    2  A    between atoms: C_5  and  C_6
REMARK    3  A    between atoms: C_7  and  C_9
REMARK    4  A    between atoms: C_19  and  O_20
REMARK    5  A    between atoms: C_22  and  O_23
REMARK                            x       y       z     vdW  Elec       q    Type
REMARK                         _______ _______ _______ _____ _____    ______ ____
ROOT
ATOM      1  C   UNL     1       1.028  10.391  54.965  0.00  0.00    +0.000 A 
ATOM      2  C   UNL     1       2.175  10.877  54.369  0.00  0.00    +0.000 A 
ATOM      3  C   UNL     1       2.135  12.094  53.698  0.00  0.00    +0.000 A 
ATOM      4  C   UNL     1       1.075  12.944  53.984  0.00  0.00    +0.000 A 
ATOM      5  C   UNL     1      -0.146  12.427  54.383  0.00  0.00    +0.000 A 
ATOM      6  C   UNL     1      -0.142  11.134  54.872  0.00  0.00    +0.000 A 
ENDROOT
BRANCH   3   7
ATOM      7  C   UNL     1       3.089  12.465  52.673  0.00  0.00    +0.000 C 
ATOM      8  C   UNL     1       2.996  12.145  51.403  0.00  0.00    +0.000 C 
ATOM      9  C   UNL     1       1.773  11.394  50.981  0.00  0.00    +0.000 C 
BRANCH   8  10
ATOM     10  C   UNL     1       3.737  12.887  50.376  0.00  0.00    +0.000 A 
ATOM     11  C   UNL     1       4.407  14.067  50.677  0.00  0.00    +0.000 A 
ATOM     12  C   UNL     1       4.375  15.144  49.798  0.00  0.00    +0.000 A 
ATOM     13  C   UNL     1       3.808  15.001  48.539  0.00  0.00    +0.000 A 
ATOM     14  C   UNL     1       3.645  13.693  48.101  0.00  0.00    +0.000 A 
ATOM     15  C   UNL     1       3.539  12.656  49.020  0.00  0.00    +0.000 A 
ATOM     16  O   UNL     1       3.168  13.814  46.802  0.00  0.00    +0.000 OA
ATOM     17  C   UNL     1       2.663  15.121  46.575  0.00  0.00    +0.000 C 
ATOM     18  O   UNL     1       3.101  15.868  47.706  0.00  0.00    +0.000 OA
ENDBRANCH   8  10
ENDBRANCH   3   7
BRANCH   1  20
ATOM     19  C   UNL     1       1.207   8.026  55.645  0.00  0.00    +0.000 C 
ATOM     20  O   UNL     1       1.059   9.392  55.942  0.00  0.00    +0.000 OA
ENDBRANCH   1  20
BRANCH   5  21
ATOM     21  O   UNL     1      -1.276  13.230  54.555  0.00  0.00    +0.000 OA
ATOM     22  C   UNL     1      -2.034  13.610  53.409  0.00  0.00    +0.000 C 
ENDBRANCH   5  21
BRANCH   6  23
ATOM     23  O   UNL     1      -1.352  10.438  54.947  0.00  0.00    +0.000 OA
ATOM     24  C   UNL     1      -1.813   9.719  53.806  0.00  0.00    +0.000 C 
ENDBRANCH   6  23
TORSDOF 5
ENDMDL
MODEL 2
REMARK VINA RESULT:      -0.0     21.455     23.913
REMARK  Name = 
REMARK  5 active torsions:
REMARK  status: ('A' for Active; 'I' for Inactive)
REMARK    1  A    between atoms: O_2  and  C_3
REMARK    2  A    between atoms: C_5  and  C_6
REMARK    3  A    between atoms: C_7  and  C_9
REMARK    4  A    between atoms: C_19  and  O_20
REMARK    5  A    between atoms: C_22  and  O_23
REMARK                            x       y       z     vdW  Elec       q    Type
REMARK                         _______ _______ _______ _____ _____    ______ ____
ROOT
ATOM      1  C   UNL     1      24.786  19.951  57.924  0.00  0.00    +0.000 A 
ATOM      2  C   UNL     1      24.610  21.133  57.233  0.00  0.00    +0.000 A 
ATOM      3  C   UNL     1      23.644  21.206  56.236  0.00  0.00    +0.000 A 
ATOM      4  C   UNL     1      22.647  20.239  56.243  0.00  0.00    +0.000 A 
ATOM      5  C   UNL     1      22.902  18.977  56.754  0.00  0.00    +0.000 A 
ATOM      6  C   UNL     1      23.990  18.860  57.598  0.00  0.00    +0.000 A 
ENDROOT
BRANCH   3   7
ATOM      7  C   UNL     1      23.683  22.180  55.164  0.00  0.00    +0.000 C 
ATOM      8  C   UNL     1      24.349  22.041  54.042  0.00  0.00    +0.000 C 
ATOM      9  C   UNL     1      25.068  20.745  53.836  0.00  0.00    +0.000 C 
BRANCH   8  10
ATOM     10  C   UNL     1      24.016  22.840  52.856  0.00  0.00    +0.000 A 
ATOM     11  C   UNL     1      22.866  23.618  52.807  0.00  0.00    +0.000 A 
ATOM     12  C   UNL     1      22.100  23.679  51.649  0.00  0.00    +0.000 A 
ATOM     13  C   UNL     1      22.559  23.092  50.477  0.00  0.00    +0.000 A 
ATOM     14  C   UNL     1      23.917  22.805  50.443  0.00  0.00    +0.000 A 
ATOM     15  C   UNL     1      24.621  22.610  51.626  0.00  0.00    +0.000 A 
ATOM     16  O   UNL     1      24.145  22.332  49.157  0.00  0.00    +0.000 OA
ATOM     17  C   UNL     1      22.924  21.948  48.543  0.00  0.00    +0.000 C 
ATOM     18  O   UNL     1      21.918  22.461  49.410  0.00  0.00    +0.000 OA
ENDBRANCH   8  10
ENDBRANCH   3   7
BRANCH   1  20
ATOM     19  C   UNL     1      26.855  19.899  59.267  0.00  0.00    +0.000 C 
ATOM     20  O   UNL     1      25.455  19.894  59.151  0.00  0.00    +0.000 OA
ENDBRANCH   1  20
BRANCH   5  21
ATOM     21  O   UNL     1      21.978  17.935  56.664  0.00  0.00    +0.000 OA
ATOM     22  C   UNL     1      21.868  17.212  55.440  0.00  0.00    +0.000 C 
ENDBRANCH   5  21
BRANCH   6  23
ATOM     23  O   UNL     1      24.513  17.587  57.851  0.00  0.00    +0.000 OA
ATOM     24  C   UNL     1      25.476  17.039  56.955  0.00  0.00    +0.000 C 
ENDBRANCH   6  23
TORSDOF 5
ENDMDL
MODEL 3
REMARK VINA RESULT:      -0.0      4.232      6.246
REMARK  Name = 
REMARK  5 active torsions:
REMARK  status: ('A' for Active; 'I' for Inactive)
REMARK    1  A    between atoms: O_2  and  C_3
REMARK    2  A    between atoms: C_5  and  C_6
REMARK    3  A    between atoms: C_7  and  C_9
REMARK    4  A    between atoms: C_19  and  O_20
REMARK    5  A    between atoms: C_22  and  O_23
REMARK                            x       y       z     vdW  Elec       q    Type
REMARK                         _______ _______ _______ _____ _____    ______ ____
ROOT
ATOM      1  C   UNL     1       1.058   9.955  48.644  0.00  0.00    +0.000 A 
ATOM      2  C   UNL     1       0.597  10.735  49.686  0.00  0.00    +0.000 A 
ATOM      3  C   UNL     1       0.137  12.020  49.427  0.00  0.00    +0.000 A 
ATOM      4  C   UNL     1      -0.206  12.323  48.115  0.00  0.00    +0.000 A 
ATOM      5  C   UNL     1       0.421  11.675  47.064  0.00  0.00    +0.000 A 
ATOM      6  C   UNL     1       1.054  10.483  47.359  0.00  0.00    +0.000 A 
ENDROOT
BRANCH   3   7
ATOM      7  C   UNL     1       0.082  13.060  50.434  0.00  0.00    +0.000 C 
ATOM      8  C   UNL     1       1.081  13.846  50.764  0.00  0.00    +0.000 C 
ATOM      9  C   UNL     1       2.351  13.690  49.989  0.00  0.00    +0.000 C 
BRANCH   8  10
ATOM     10  C   UNL     1       0.850  15.118  51.459  0.00  0.00    +0.000 A 
ATOM     11  C   UNL     1      -0.430  15.636  51.616  0.00  0.00    +0.000 A 
ATOM     12  C   UNL     1      -0.668  16.996  51.461  0.00  0.00    +0.000 A 
ATOM     13  C   UNL     1       0.394  17.877  51.304  0.00  0.00    +0.000 A 
ATOM     14  C   UNL     1       1.637  17.390  51.685  0.00  0.00    +0.000 A 
ATOM     15  C   UNL     1       1.880  16.021  51.691  0.00  0.00    +0.000 A 
ATOM     16  O   UNL     1       2.499  18.469  51.535  0.00  0.00    +0.000 OA
ATOM     17  C   UNL     1       1.913  19.465  50.710  0.00  0.00    +0.000 C 
ATOM     18  O   UNL     1       0.552  19.063  50.586  0.00  0.00    +0.000 OA
ENDBRANCH   8  10
ENDBRANCH   3   7
BRANCH   1  20
ATOM     19  C   UNL     1       2.277   7.942  49.386  0.00  0.00    +0.000 C 
ATOM     20  O   UNL     1       1.191   8.567  48.750  0.00  0.00    +0.000 OA
ENDBRANCH   1  20
BRANCH   5  21
ATOM     21  O   UNL     1       0.206  12.036  45.732  0.00  0.00    +0.000 OA
ATOM     22  C   UNL     1       0.902  13.160  45.199  0.00  0.00    +0.000 C 
ENDBRANCH   5  21
BRANCH   6  23
ATOM     23  O   UNL     1       1.992   9.976  46.454  0.00  0.00    +0.000 OA
ATOM     24  C   UNL     1       3.346  10.414  46.537  0.00  0.00    +0.000 C 
ENDBRANCH   6  23
TORSDOF 5
ENDMDL
MODEL 4
REMARK VINA RESULT:       0.0     28.019     29.941
REMARK  Name = 
REMARK  5 active torsions:
REMARK  status: ('A' for Active; 'I' for Inactive)
REMARK    1  A    between atoms: O_2  and  C_3
REMARK    2  A    between atoms: C_5  and  C_6
REMARK    3  A    between atoms: C_7  and  C_9
REMARK    4  A    between atoms: C_19  and  O_20
REMARK    5  A    between atoms: C_22  and  O_23
REMARK                            x       y       z     vdW  Elec       q    Type
REMARK                         _______ _______ _______ _____ _____    ______ ____
ROOT
ATOM      1  C   UNL     1      15.460  21.450  75.085  0.00  0.00    +0.000 A 
ATOM      2  C   UNL     1      14.547  22.318  74.519  0.00  0.00    +0.000 A 
ATOM      3  C   UNL     1      14.323  23.556  75.110  0.00  0.00    +0.000 A 
ATOM      4  C   UNL     1      15.286  24.025  75.994  0.00  0.00    +0.000 A 
ATOM      5  C   UNL     1      16.060  23.134  76.719  0.00  0.00    +0.000 A 
ATOM      6  C   UNL     1      16.128  21.839  76.239  0.00  0.00    +0.000 A 
ENDROOT
BRANCH   3   7
ATOM      7  C   UNL     1      13.110  24.321  74.908  0.00  0.00    +0.000 C 
ATOM      8  C   UNL     1      11.999  24.170  75.592  0.00  0.00    +0.000 C 
ATOM      9  C   UNL     1      12.019  23.172  76.707  0.00  0.00    +0.000 C 
BRANCH   8  10
ATOM     10  C   UNL     1      10.982  25.228  75.634  0.00  0.00    +0.000 A 
ATOM     11  C   UNL     1      11.133  26.406  74.913  0.00  0.00    +0.000 A 
ATOM     12  C   UNL     1      10.777  27.628  75.471  0.00  0.00    +0.000 A 
ATOM     13  C   UNL     1      10.118  27.673  76.693  0.00  0.00    +0.000 A 
ATOM     14  C   UNL     1       9.528  26.483  77.098  0.00  0.00    +0.000 A 
ATOM     15  C   UNL     1      10.008  25.267  76.624  0.00  0.00    +0.000 A 
ATOM     16  O   UNL     1       8.857  26.804  78.271  0.00  0.00    +0.000 OA
ATOM     17  C   UNL     1       9.338  28.030  78.801  0.00  0.00    +0.000 C 
ATOM     18  O   UNL     1      10.140  28.574  77.758  0.00  0.00    +0.000 OA
ENDBRANCH   8  10
ENDBRANCH   3   7
BRANCH   1  20
ATOM     19  C   UNL     1      15.325  19.159  74.179  0.00  0.00    +0.000 C 
ATOM     20  O   UNL     1      16.005  20.373  74.380  0.00  0.00    +0.000 OA
ENDBRANCH   1  20
BRANCH   5  21
ATOM     21  O   UNL     1      16.947  23.554  77.712  0.00  0.00    +0.000 OA
ATOM     22  C   UNL     1      16.439  23.860  79.008  0.00  0.00    +0.000 C 
ENDBRANCH   5  21
BRANCH   6  23
ATOM     23  O   UNL     1      16.576  20.827  77.094  0.00  0.00    +0.000 OA
ATOM     24  C   UNL     1      15.642  20.180  77.955  0.00  0.00    +0.000 C 
ENDBRANCH   6  23
TORSDOF 5
ENDMDL
MODEL 5
REMARK VINA RESULT:       0.0     25.341     29.490
REMARK  Name = 
REMARK  5 active torsions:
REMARK  status: ('A' for Active; 'I' for Inactive)
REMARK    1  A    between atoms: O_2  and  C_3
REMARK    2  A    between atoms: C_5  and  C_6
REMARK    3  A    between atoms: C_7  and  C_9
REMARK    4  A    between atoms: C_19  and  O_20
REMARK    5  A    between atoms: C_22  and  O_23
REMARK                            x       y       z     vdW  Elec       q    Type
REMARK                         _______ _______ _______ _____ _____    ______ ____
ROOT
ATOM      1  C   UNL     1      13.331  34.690  39.525  0.00  0.00    +0.000 A 
ATOM      2  C   UNL     1      14.641  34.860  39.122  0.00  0.00    +0.000 A 
ATOM      3  C   UNL     1      15.666  34.285  39.865  0.00  0.00    +0.000 A 
ATOM      4  C   UNL     1      15.323  33.258  40.735  0.00  0.00    +0.000 A 
ATOM      5  C   UNL     1      14.060  33.215  41.301  0.00  0.00    +0.000 A 
ATOM      6  C   UNL     1      13.074  33.950  40.672  0.00  0.00    +0.000 A 
ENDROOT
BRANCH   3   7
ATOM      7  C   UNL     1      17.033  34.763  39.831  0.00  0.00    +0.000 C 
ATOM      8  C   UNL     1      17.508  35.745  40.561  0.00  0.00    +0.000 C 
ATOM      9  C   UNL     1      16.574  36.370  41.548  0.00  0.00    +0.000 C 
BRANCH   8  10
ATOM     10  C   UNL     1      18.951  35.894  40.789  0.00  0.00    +0.000 A 
ATOM     11  C   UNL     1      19.849  34.903  40.410  0.00  0.00    +0.000 A 
ATOM     12  C   UNL     1      20.917  34.564  41.231  0.00  0.00    +0.000 A 
ATOM     13  C   UNL     1      21.193  35.316  42.366  0.00  0.00    +0.000 A 
ATOM     14  C   UNL     1      20.612  36.576  42.403  0.00  0.00    +0.000 A 
ATOM     15  C   UNL     1      19.458  36.837  41.674  0.00  0.00    +0.000 A 
ATOM     16  O   UNL     1      21.111  37.159  43.561  0.00  0.00    +0.000 OA
ATOM     17  C   UNL     1      21.651  36.170  44.425  0.00  0.00    +0.000 C 
ATOM     18  O   UNL     1      21.702  34.994  43.625  0.00  0.00    +0.000 OA
ENDBRANCH   8  10
ENDBRANCH   3   7
BRANCH   1  20
ATOM     19  C   UNL     1      11.747  36.191  38.372  0.00  0.00    +0.000 C 
ATOM     20  O   UNL     1      12.250  34.912  38.666  0.00  0.00    +0.000 OA
ENDBRANCH   1  20
BRANCH   5  21
ATOM     21  O   UNL     1      13.712  32.280  42.278  0.00  0.00    +0.000 OA
ATOM     22  C   UNL     1      14.095  32.518  43.631  0.00  0.00    +0.000 C 
ENDBRANCH   5  21
BRANCH   6  23
ATOM     23  O   UNL     1      11.899  34.242  41.373  0.00  0.00    +0.000 OA
ATOM     24  C   UNL     1      11.857  35.395  42.210  0.00  0.00    +0.000 C 
ENDBRANCH   6  23
TORSDOF 5
ENDMDL
MODEL 6
REMARK VINA RESULT:       0.0      9.745     13.636
REMARK  Name = 
REMARK  5 active torsions:
REMARK  status: ('A' for Active; 'I' for Inactive)
REMARK    1  A    between atoms: O_2  and  C_3
REMARK    2  A    between atoms: C_5  and  C_6
REMARK    3  A    between atoms: C_7  and  C_9
REMARK    4  A    between atoms: C_19  and  O_20
REMARK    5  A    between atoms: C_22  and  O_23
REMARK                            x       y       z     vdW  Elec       q    Type
REMARK                         _______ _______ _______ _____ _____    ______ ____
ROOT
ATOM      1  C   UNL     1      -0.889   3.727  57.207  0.00  0.00    +0.000 A 
ATOM      2  C   UNL     1      -1.586   4.620  57.997  0.00  0.00    +0.000 A 
ATOM      3  C   UNL     1      -2.752   4.207  58.632  0.00  0.00    +0.000 A 
ATOM      4  C   UNL     1      -2.953   2.839  58.768  0.00  0.00    +0.000 A 
ATOM      5  C   UNL     1      -2.418   1.960  57.841  0.00  0.00    +0.000 A 
ATOM      6  C   UNL     1      -1.378   2.435  57.064  0.00  0.00    +0.000 A 
ENDROOT
BRANCH   3   7
ATOM      7  C   UNL     1      -3.782   5.125  59.072  0.00  0.00    +0.000 C 
ATOM      8  C   UNL     1      -4.752   5.590  58.319  0.00  0.00    +0.000 C 
ATOM      9  C   UNL     1      -4.826   5.075  56.916  0.00  0.00    +0.000 C 
BRANCH   8  10
ATOM     10  C   UNL     1      -5.970   6.155  58.910  0.00  0.00    +0.000 A 
ATOM     11  C   UNL     1      -6.232   6.047  60.271  0.00  0.00    +0.000 A 
ATOM     12  C   UNL     1      -7.516   5.771  60.726  0.00  0.00    +0.000 A 
ATOM     13  C   UNL     1      -8.583   5.757  59.837  0.00  0.00    +0.000 A 
ATOM     14  C   UNL     1      -8.357   6.385  58.620  0.00  0.00    +0.000 A 
ATOM     15  C   UNL     1      -7.062   6.516  58.131  0.00  0.00    +0.000 A 
ATOM     16  O   UNL     1      -9.579   6.331  57.963  0.00  0.00    +0.000 OA
ATOM     17  C   UNL     1     -10.423   5.356  58.558  0.00  0.00    +0.000 C 
ATOM     18  O   UNL     1      -9.761   5.012  59.771  0.00  0.00    +0.000 OA
ENDBRANCH   8  10
ENDBRANCH   3   7
BRANCH   1  20
ATOM     19  C   UNL     1       0.833   4.807  55.807  0.00  0.00    +0.000 C 
ATOM     20  O   UNL     1       0.444   3.936  56.840  0.00  0.00    +0.000 OA
ENDBRANCH   1  20
BRANCH   5  21
ATOM     21  O   UNL     1      -2.701   0.592  57.861  0.00  0.00    +0.000 OA
ATOM     22  C   UNL     1      -3.925   0.132  57.296  0.00  0.00    +0.000 C 
ENDBRANCH   5  21
BRANCH   6  23
ATOM     23  O   UNL     1      -1.044   1.749  55.893  0.00  0.00    +0.000 OA
ATOM     24  C   UNL     1      -1.740   2.053  54.686  0.00  0.00    +0.000 C 
ENDBRANCH   6  23
TORSDOF 5
ENDMDL
MODEL 7
REMARK VINA RESULT:       0.0     13.237     16.464
REMARK  Name = 
REMARK  5 active torsions:
REMARK  status: ('A' for Active; 'I' for Inactive)
REMARK    1  A    between atoms: O_2  and  C_3
REMARK    2  A    between atoms: C_5  and  C_6
REMARK    3  A    between atoms: C_7  and  C_9
REMARK    4  A    between atoms: C_19  and  O_20
REMARK    5  A    between atoms: C_22  and  O_23
REMARK                            x       y       z     vdW  Elec       q    Type
REMARK                         _______ _______ _______ _____ _____    ______ ____
ROOT
ATOM      1  C   UNL     1       6.355  11.568  62.668  0.00  0.00    +0.000 A 
ATOM      2  C   UNL     1       6.098  12.786  63.267  0.00  0.00    +0.000 A 
ATOM      3  C   UNL     1       7.006  13.302  64.184  0.00  0.00    +0.000 A 
ATOM      4  C   UNL     1       8.294  12.783  64.168  0.00  0.00    +0.000 A 
ATOM      5  C   UNL     1       8.515  11.478  63.759  0.00  0.00    +0.000 A 
ATOM      6  C   UNL     1       7.518  10.888  63.006  0.00  0.00    +0.000 A 
ENDROOT
BRANCH   3   7
ATOM      7  C   UNL     1       6.646  14.280  65.191  0.00  0.00    +0.000 C 
ATOM      8  C   UNL     1       6.131  14.000  66.366  0.00  0.00    +0.000 C 
ATOM      9  C   UNL     1       5.967  12.552  66.707  0.00  0.00    +0.000 C 
BRANCH   8  10
ATOM     10  C   UNL     1       6.186  14.965  67.470  0.00  0.00    +0.000 A 
ATOM     11  C   UNL     1       6.956  16.119  67.384  0.00  0.00    +0.000 A 
ATOM     12  C   UNL     1       7.689  16.565  68.477  0.00  0.00    +0.000 A 
ATOM     13  C   UNL     1       7.539  15.953  69.715  0.00  0.00    +0.000 A 
ATOM     14  C   UNL     1       6.395  15.181  69.866  0.00  0.00    +0.000 A 
ATOM     15  C   UNL     1       5.767  14.634  68.753  0.00  0.00    +0.000 A 
ATOM     16  O   UNL     1       6.419  14.771  71.193  0.00  0.00    +0.000 OA
ATOM     17  C   UNL     1       7.719  14.929  71.740  0.00  0.00    +0.000 C 
ATOM     18  O   UNL     1       8.417  15.704  70.771  0.00  0.00    +0.000 OA
ENDBRANCH   8  10
ENDBRANCH   3   7
BRANCH   1  20
ATOM     19  C   UNL     1       4.406  10.624  61.485  0.00  0.00    +0.000 C 
ATOM     20  O   UNL     1       5.706  11.158  61.500  0.00  0.00    +0.000 OA
ENDBRANCH   1  20
BRANCH   5  21
ATOM     21  O   UNL     1       9.770  10.870  63.849  0.00  0.00    +0.000 OA
ATOM     22  C   UNL     1      10.194  10.344  65.104  0.00  0.00    +0.000 C 
ENDBRANCH   5  21
BRANCH   6  23
ATOM     23  O   UNL     1       7.508   9.496  62.874  0.00  0.00    +0.000 OA
ATOM     24  C   UNL     1       6.861   8.707  63.870  0.00  0.00    +0.000 C 
ENDBRANCH   6  23
TORSDOF 5
ENDMDL
MODEL 8
REMARK VINA RESULT:       0.0     23.752     26.055
REMARK  Name = 
REMARK  5 active torsions:
REMARK  status: ('A' for Active; 'I' for Inactive)
REMARK    1  A    between atoms: O_2  and  C_3
REMARK    2  A    between atoms: C_5  and  C_6
REMARK    3  A    between atoms: C_7  and  C_9
REMARK    4  A    between atoms: C_19  and  O_20
REMARK    5  A    between atoms: C_22  and  O_23
REMARK                            x       y       z     vdW  Elec       q    Type
REMARK                         _______ _______ _______ _____ _____    ______ ____
ROOT
ATOM      1  C   UNL     1      17.118  28.382  61.469  0.00  0.00    +0.000 A 
ATOM      2  C   UNL     1      17.963  27.781  60.557  0.00  0.00    +0.000 A 
ATOM      3  C   UNL     1      19.238  28.298  60.362  0.00  0.00    +0.000 A 
ATOM      4  C   UNL     1      19.746  29.131  61.351  0.00  0.00    +0.000 A 
ATOM      5  C   UNL     1      18.890  29.895  62.127  0.00  0.00    +0.000 A 
ATOM      6  C   UNL     1      17.567  29.496  62.167  0.00  0.00    +0.000 A 
ENDROOT
BRANCH   3   7
ATOM      7  C   UNL     1      20.008  28.074  59.156  0.00  0.00    +0.000 C 
ATOM      8  C   UNL     1      19.916  28.788  58.057  0.00  0.00    +0.000 C 
ATOM      9  C   UNL     1      18.987  29.960  58.087  0.00  0.00    +0.000 C 
BRANCH   8  10
ATOM     10  C   UNL     1      20.989  28.784  57.056  0.00  0.00    +0.000 A 
ATOM     11  C   UNL     1      22.216  28.184  57.311  0.00  0.00    +0.000 A 
ATOM     12  C   UNL     1      23.399  28.786  56.902  0.00  0.00    +0.000 A 
ATOM     13  C   UNL     1      23.364  29.916  56.095  0.00  0.00    +0.000 A 
ATOM     14  C   UNL     1      22.160  30.150  55.445  0.00  0.00    +0.000 A 
ATOM     15  C   UNL     1      20.974  29.645  55.965  0.00  0.00    +0.000 A 
ATOM     16  O   UNL     1      22.405  31.251  54.635  0.00  0.00    +0.000 OA
ATOM     17  C   UNL     1      23.576  31.932  55.060  0.00  0.00    +0.000 C 
ATOM     18  O   UNL     1      24.181  31.043  55.993  0.00  0.00    +0.000 OA
ENDBRANCH   8  10
ENDBRANCH   3   7
BRANCH   1  20
ATOM     19  C   UNL     1      14.775  27.628  61.284  0.00  0.00    +0.000 C 
ATOM     20  O   UNL     1      15.990  27.734  61.983  0.00  0.00    +0.000 OA
ENDBRANCH   1  20
BRANCH   5  21
ATOM     21  O   UNL     1      19.357  30.842  63.041  0.00  0.00    +0.000 OA
ATOM     22  C   UNL     1      19.750  32.127  62.565  0.00  0.00    +0.000 C 
ENDBRANCH   5  21
BRANCH   6  23
ATOM     23  O   UNL     1      16.603  30.402  62.618  0.00  0.00    +0.000 OA
ATOM     24  C   UNL     1      16.027  31.322  61.694  0.00  0.00    +0.000 C 
ENDBRANCH   6  23
TORSDOF 5
ENDMDL
MODEL 9
REMARK VINA RESULT:       0.0     12.337     14.195
REMARK  Name = 
REMARK  5 active torsions:
REMARK  status: ('A' for Active; 'I' for Inactive)
REMARK    1  A    between atoms: O_2  and  C_3
REMARK    2  A    between atoms: C_5  and  C_6
REMARK    3  A    between atoms: C_7  and  C_9
REMARK    4  A    between atoms: C_19  and  O_20
REMARK    5  A    between atoms: C_22  and  O_23
REMARK                            x       y       z     vdW  Elec       q    Type
REMARK                         _______ _______ _______ _____ _____    ______ ____
ROOT
ATOM      1  C   UNL     1       4.020  26.420  57.694  0.00  0.00    +0.000 A 
ATOM      2  C   UNL     1       3.357  26.360  56.484  0.00  0.00    +0.000 A 
ATOM      3  C   UNL     1       3.695  25.371  55.567  0.00  0.00    +0.000 A 
ATOM      4  C   UNL     1       4.388  24.266  56.047  0.00  0.00    +0.000 A 
ATOM      5  C   UNL     1       5.221  24.389  57.147  0.00  0.00    +0.000 A 
ATOM      6  C   UNL     1       5.015  25.487  57.960  0.00  0.00    +0.000 A 
ENDROOT
BRANCH   3   7
ATOM      7  C   UNL     1       3.433  25.484  54.147  0.00  0.00    +0.000 C 
ATOM      8  C   UNL     1       4.214  26.085  53.280  0.00  0.00    +0.000 C 
ATOM      9  C   UNL     1       5.505  26.636  53.799  0.00  0.00    +0.000 C 
BRANCH   8  10
ATOM     10  C   UNL     1       4.114  25.804  51.843  0.00  0.00    +0.000 A 
ATOM     11  C   UNL     1       3.340  24.754  51.363  0.00  0.00    +0.000 A 
ATOM     12  C   UNL     1       3.795  23.957  50.320  0.00  0.00    +0.000 A 
ATOM     13  C   UNL     1       4.957  24.295  49.639  0.00  0.00    +0.000 A 
ATOM     14  C   UNL     1       5.384  25.606  49.799  0.00  0.00    +0.000 A 
ATOM     15  C   UNL     1       5.021  26.327  50.930  0.00  0.00    +0.000 A 
ATOM     16  O   UNL     1       6.481  25.724  48.954  0.00  0.00    +0.000 OA
ATOM     17  C   UNL     1       6.974  24.442  48.594  0.00  0.00    +0.000 C 
ATOM     18  O   UNL     1       5.965  23.540  49.038  0.00  0.00    +0.000 OA
ENDBRANCH   8  10
ENDBRANCH   3   7
BRANCH   1  20
ATOM     19  C   UNL     1       3.622  28.519  58.929  0.00  0.00    +0.000 C 
ATOM     20  O   UNL     1       3.513  27.124  58.790  0.00  0.00    +0.000 OA
ENDBRANCH   1  20
BRANCH   5  21
ATOM     21  O   UNL     1       6.036  23.343  57.585  0.00  0.00    +0.000 OA
ATOM     22  C   UNL     1       7.274  23.106  56.918  0.00  0.00    +0.000 C 
ENDBRANCH   5  21
BRANCH   6  23
ATOM     23  O   UNL     1       6.024  25.863  58.853  0.00  0.00    +0.000 OA
ATOM     24  C   UNL     1       7.063  26.729  58.404  0.00  0.00    +0.000 C 
ENDBRANCH   6  23
TORSDOF 5
ENDMDL
MODEL 10
REMARK VINA RESULT:       0.0     21.803     23.934
REMARK  Name = 
REMARK  5 active torsions:
REMARK  status: ('A' for Active; 'I' for Inactive)
REMARK    1  A    between atoms: O_2  and  C_3
REMARK    2  A    between atoms: C_5  and  C_6
REMARK    3  A    between atoms: C_7  and  C_9
REMARK    4  A    between atoms: C_19  and  O_20
REMARK    5  A    between atoms: C_22  and  O_23
REMARK                            x       y       z     vdW  Elec       q    Type
REMARK                         _______ _______ _______ _____ _____    ______ ____
ROOT
ATOM      1  C   UNL     1       8.131  32.119  60.450  0.00  0.00    +0.000 A 
ATOM      2  C   UNL     1       7.138  32.857  61.063  0.00  0.00    +0.000 A 
ATOM      3  C   UNL     1       5.914  33.021  60.424  0.00  0.00    +0.000 A 
ATOM      4  C   UNL     1       5.603  32.131  59.404  0.00  0.00    +0.000 A 
ATOM      5  C   UNL     1       6.612  31.552  58.651  0.00  0.00    +0.000 A 
ATOM      6  C   UNL     1       7.879  31.563  59.202  0.00  0.00    +0.000 A 
ENDROOT
BRANCH   3   7
ATOM      7  C   UNL     1       5.007  34.111  60.718  0.00  0.00    +0.000 C 
ATOM      8  C   UNL     1       5.068  35.309  60.183  0.00  0.00    +0.000 C 
ATOM      9  C   UNL     1       6.119  35.535  59.143  0.00  0.00    +0.000 C 
BRANCH   8  10
ATOM     10  C   UNL     1       3.906  36.206  60.193  0.00  0.00    +0.000 A 
ATOM     11  C   UNL     1       2.716  35.843  60.813  0.00  0.00    +0.000 A 
ATOM     12  C   UNL     1       1.492  36.134  60.224  0.00  0.00    +0.000 A 
ATOM     13  C   UNL     1       1.436  36.931  59.088  0.00  0.00    +0.000 A 
ATOM     14  C   UNL     1       2.571  37.688  58.832  0.00  0.00    +0.000 A 
ATOM     15  C   UNL     1       3.807  37.285  59.324  0.00  0.00    +0.000 A 
ATOM     16  O   UNL     1       2.237  38.462  57.727  0.00  0.00    +0.000 OA
ATOM     17  C   UNL     1       1.102  37.923  57.066  0.00  0.00    +0.000 C 
ATOM     18  O   UNL     1       0.599  36.945  57.971  0.00  0.00    +0.000 OA
ENDBRANCH   8  10
ENDBRANCH   3   7
BRANCH   1  20
ATOM     19  C   UNL     1      10.344  32.382  61.509  0.00  0.00    +0.000 C 
ATOM     20  O   UNL     1       9.226  31.608  61.154  0.00  0.00    +0.000 OA
ENDBRANCH   1  20
BRANCH   5  21
ATOM     21  O   UNL     1       6.346  30.756  57.535  0.00  0.00    +0.000 OA
ATOM     22  C   UNL     1       6.047  31.387  56.292  0.00  0.00    +0.000 C 
ENDBRANCH   5  21
BRANCH   6  23
ATOM     23  O   UNL     1       8.978  31.335  58.368  0.00  0.00    +0.000 OA
ATOM     24  C   UNL     1       9.555  32.431  57.662  0.00  0.00    +0.000 C 
ENDBRANCH   6  23
TORSDOF 5
ENDMDL
