REMARK  Name = 
REMARK  7 active torsions:
REMARK  status: ('A' for Active; 'I' for Inactive)
REMARK    1  A    between atoms: O_2  and  C_3
REMARK    2  A    between atoms: C_6  and  C_7
REMARK    3  A    between atoms: C_7  and  N_21
REMARK    4  A    between atoms: C_8  and  C_9
REMARK    5  A    between atoms: C_11  and  O_12
REMARK    6  A    between atoms: C_14  and  O_15
REMARK    7  A    between atoms: C_17  and  O_18
REMARK                            x       y       z     vdW  Elec       q    Type
REMARK                         _______ _______ _______ _____ _____    ______ ____
ROOT
ATOM      1  C   UNL     1       1.244   0.269  -0.653  0.00  0.00    +0.000 C 
ATOM      2  C   UNL     1       0.325   1.187  -0.954  0.00  0.00    +0.000 C 
ENDROOT
BRANCH   1   6
ATOM      3  C   UNL     1       4.776   0.159   1.449  0.00  0.00    +0.000 A 
ATOM      4  C   UNL     1       4.785  -0.307   0.140  0.00  0.00    +0.000 A 
ATOM      5  C   UNL     1       3.710  -0.099  -0.713  0.00  0.00    +0.000 A 
ATOM      6  C   UNL     1       2.616   0.651  -0.296  0.00  0.00    +0.000 A 
ATOM      7  C   UNL     1       2.845   1.453   0.817  0.00  0.00    +0.000 A 
ATOM      8  C   UNL     1       3.897   1.208   1.692  0.00  0.00    +0.000 A 
BRANCH   3  10
ATOM      9  C   UNL     1       6.381  -1.441   2.352  0.00  0.00    +0.000 C 
ATOM     10  O   UNL     1       5.252  -0.621   2.508  0.00  0.00    +0.000 OA
ENDBRANCH   3  10
ENDBRANCH   1   6
BRANCH   2  11
ATOM     11  C   UNL     1      -1.099   0.856  -1.037  0.00  0.00    +0.000 A 
ATOM     12  C   UNL     1      -1.482  -0.425  -1.387  0.00  0.00    +0.000 A 
ATOM     13  C   UNL     1      -2.704  -0.967  -1.004  0.00  0.00    +0.000 A 
ATOM     14  C   UNL     1      -3.579  -0.139  -0.323  0.00  0.00    +0.000 A 
ATOM     15  C   UNL     1      -3.395   1.226  -0.448  0.00  0.00    +0.000 A 
ATOM     16  C   UNL     1      -2.095   1.692  -0.596  0.00  0.00    +0.000 A 
BRANCH  13  17
ATOM     17  O   UNL     1      -2.855  -2.357  -0.966  0.00  0.00    +0.000 OA
ATOM     18  C   UNL     1      -2.128  -3.077  -1.955  0.00  0.00    +0.000 C 
ENDBRANCH  13  17
BRANCH  14  19
ATOM     19  O   UNL     1      -4.541  -0.702   0.500  0.00  0.00    +0.000 OA
ATOM     20  C   UNL     1      -4.387  -0.644   1.906  0.00  0.00    +0.000 C 
ENDBRANCH  14  19
BRANCH  15  21
ATOM     21  O   UNL     1      -4.396   2.050   0.022  0.00  0.00    +0.000 OA
ATOM     22  C   UNL     1      -5.687   1.985  -0.562  0.00  0.00    +0.000 C 
ENDBRANCH  15  21
ENDBRANCH   2  11
BRANCH   1  23
ATOM     23  N   UNL     1       0.723  -1.029  -0.341  0.00  0.00    +0.000 N 
ATOM     24  O   UNL     1       0.466  -1.255   0.869  0.00  0.00    +0.000 OA
ATOM     25  O   UNL     1       1.328  -2.075  -1.018  0.00  0.00    +0.000 OA
ENDBRANCH   1  23
TORSDOF 7
