REMARK  Name = 
REMARK  6 active torsions:
REMARK  status: ('A' for Active; 'I' for Inactive)
REMARK    1  A    between atoms: O_2  and  C_3
REMARK    2  A    between atoms: C_8  and  O_9
REMARK    3  A    between atoms: C_12  and  C_13
REMARK    4  A    between atoms: C_15  and  O_16
REMARK    5  A    between atoms: C_18  and  O_19
REMARK    6  A    between atoms: C_21  and  O_22
REMARK                            x       y       z     vdW  Elec       q    Type
REMARK                         _______ _______ _______ _____ _____    ______ ____
ROOT
ATOM      1  C   UNL     1       4.939  -0.411  -0.414  0.00  0.00    +0.000 A 
ATOM      2  C   UNL     1       4.253  -0.123  -1.587  0.00  0.00    +0.000 A 
ATOM      3  C   UNL     1       2.865  -0.047  -1.557  0.00  0.00    +0.000 A 
ATOM      4  C   UNL     1       2.238   0.271  -0.360  0.00  0.00    +0.000 A 
ATOM      5  C   UNL     1       3.036   0.294   0.776  0.00  0.00    +0.000 A 
ATOM      6  C   UNL     1       4.288  -0.308   0.786  0.00  0.00    +0.000 A 
ATOM      7  C   UNL     1       0.805   0.046  -0.540  0.00  0.00    +0.000 C 
ATOM      8  C   UNL     1      -0.095  -0.351   0.358  0.00  0.00    +0.000 C 
ATOM      9  C   UNL     1       0.601   0.044  -1.993  0.00  0.00    +0.000 C 
ATOM     10  O   UNL     1      -0.509  -0.220  -2.523  0.00  0.00    +0.000 OA
ATOM     11  N   UNL     1       1.881  -0.229  -2.575  0.00  0.00    +0.000 NA
ENDROOT
BRANCH   8  12
ATOM     12  C   UNL     1      -1.526  -0.197   0.061  0.00  0.00    +0.000 A 
ATOM     13  C   UNL     1      -2.244  -1.368  -0.104  0.00  0.00    +0.000 A 
ATOM     14  C   UNL     1      -3.614  -1.277  -0.104  0.00  0.00    +0.000 A 
ATOM     15  C   UNL     1      -4.192  -0.316   0.696  0.00  0.00    +0.000 A 
ATOM     16  C   UNL     1      -3.543   0.911   0.771  0.00  0.00    +0.000 A 
ATOM     17  C   UNL     1      -2.185   0.949   0.491  0.00  0.00    +0.000 A 
BRANCH  14  18
ATOM     18  O   UNL     1      -4.438  -2.188  -0.774  0.00  0.00    +0.000 OA
ATOM     19  C   UNL     1      -4.958  -1.738  -2.020  0.00  0.00    +0.000 C 
ENDBRANCH  14  18
BRANCH  15  20
ATOM     20  O   UNL     1      -5.449  -0.468   1.235  0.00  0.00    +0.000 OA
ATOM     21  C   UNL     1      -5.533  -0.707   2.637  0.00  0.00    +0.000 C 
ENDBRANCH  15  20
BRANCH  16  22
ATOM     22  O   UNL     1      -4.122   2.025   1.355  0.00  0.00    +0.000 OA
ATOM     23  C   UNL     1      -5.348   2.569   0.918  0.00  0.00    +0.000 C 
ENDBRANCH  16  22
ENDBRANCH   8  12
BRANCH   1  25
ATOM     24  C   UNL     1       7.119   0.568  -0.306  0.00  0.00    +0.000 C 
ATOM     25  O   UNL     1       6.322  -0.608  -0.427  0.00  0.00    +0.000 OA
ENDBRANCH   1  25
BRANCH   6  26
ATOM     26  O   UNL     1       5.002  -0.320   1.964  0.00  0.00    +0.000 OA
ATOM     27  C   UNL     1       4.407  -0.372   3.236  0.00  0.00    +0.000 C 
ENDBRANCH   6  26
TORSDOF 6
