MODEL 1
REMARK VINA RESULT:      -0.0      0.000      0.000
REMARK  Name = 
REMARK  6 active torsions:
REMARK  status: ('A' for Active; 'I' for Inactive)
REMARK    1  A    between atoms: O_2  and  C_3
REMARK    2  A    between atoms: C_8  and  O_9
REMARK    3  A    between atoms: C_12  and  C_13
REMARK    4  A    between atoms: C_15  and  O_16
REMARK    5  A    between atoms: C_18  and  O_19
REMARK    6  A    between atoms: C_21  and  O_22
REMARK                            x       y       z     vdW  Elec       q    Type
REMARK                         _______ _______ _______ _____ _____    ______ ____
ROOT
ATOM      1  C   UNL     1       0.179  21.066  68.131  0.00  0.00    +0.000 A 
ATOM      2  C   UNL     1      -0.613  20.884  67.005  0.00  0.00    +0.000 A 
ATOM      3  C   UNL     1      -1.901  20.383  67.158  0.00  0.00    +0.000 A 
ATOM      4  C   UNL     1      -2.552  20.571  68.369  0.00  0.00    +0.000 A 
ATOM      5  C   UNL     1      -1.792  21.074  69.416  0.00  0.00    +0.000 A 
ATOM      6  C   UNL     1      -0.403  21.051  69.370  0.00  0.00    +0.000 A 
ATOM      7  C   UNL     1      -3.763  19.752  68.349  0.00  0.00    +0.000 C 
ATOM      8  C   UNL     1      -4.373  19.143  69.365  0.00  0.00    +0.000 C 
ATOM      9  C   UNL     1      -4.008  19.471  66.930  0.00  0.00    +0.000 C 
ATOM     10  O   UNL     1      -4.924  18.703  66.538  0.00  0.00    +0.000 OA
ATOM     11  N   UNL     1      -2.758  19.676  66.262  0.00  0.00    +0.000 NA
ENDROOT
BRANCH   8  12
ATOM     12  C   UNL     1      -5.746  18.650  69.190  0.00  0.00    +0.000 A 
ATOM     13  C   UNL     1      -5.951  17.308  69.454  0.00  0.00    +0.000 A 
ATOM     14  C   UNL     1      -7.249  16.876  69.573  0.00  0.00    +0.000 A 
ATOM     15  C   UNL     1      -8.167  17.749  70.112  0.00  0.00    +0.000 A 
ATOM     16  C   UNL     1      -8.047  19.087  69.754  0.00  0.00    +0.000 A 
ATOM     17  C   UNL     1      -6.805  19.540  69.332  0.00  0.00    +0.000 A 
BRANCH  14  18
ATOM     18  O   UNL     1      -7.643  15.563  69.292  0.00  0.00    +0.000 OA
ATOM     19  C   UNL     1      -7.069  14.562  70.124  0.00  0.00    +0.000 C 
ENDBRANCH  14  18
BRANCH  15  20
ATOM     20  O   UNL     1      -9.276  17.315  70.803  0.00  0.00    +0.000 OA
ATOM     21  C   UNL     1      -9.132  17.112  72.206  0.00  0.00    +0.000 C 
ENDBRANCH  15  20
BRANCH  16  22
ATOM     22  O   UNL     1      -9.022  20.026  70.044  0.00  0.00    +0.000 OA
ATOM     23  C   UNL     1      -8.960  20.872  71.170  0.00  0.00    +0.000 C 
ENDBRANCH  16  22
ENDBRANCH   8  12
BRANCH   1  25
ATOM     24  C   UNL     1       1.734  22.750  67.445  0.00  0.00    +0.000 C 
ATOM     25  O   UNL     1       1.514  21.458  68.008  0.00  0.00    +0.000 OA
ENDBRANCH   1  25
BRANCH   6  26
ATOM     26  O   UNL     1       0.298  21.493  70.470  0.00  0.00    +0.000 OA
ATOM     27  C   UNL     1       0.132  22.767  71.040  0.00  0.00    +0.000 C 
ENDBRANCH   6  26
TORSDOF 6
ENDMDL
MODEL 2
REMARK VINA RESULT:      -0.0     20.443     22.002
REMARK  Name = 
REMARK  6 active torsions:
REMARK  status: ('A' for Active; 'I' for Inactive)
REMARK    1  A    between atoms: O_2  and  C_3
REMARK    2  A    between atoms: C_8  and  O_9
REMARK    3  A    between atoms: C_12  and  C_13
REMARK    4  A    between atoms: C_15  and  O_16
REMARK    5  A    between atoms: C_18  and  O_19
REMARK    6  A    between atoms: C_21  and  O_22
REMARK                            x       y       z     vdW  Elec       q    Type
REMARK                         _______ _______ _______ _____ _____    ______ ____
ROOT
ATOM      1  C   UNL     1      -6.389  11.401  48.863  0.00  0.00    +0.000 A 
ATOM      2  C   UNL     1      -7.048  11.486  50.083  0.00  0.00    +0.000 A 
ATOM      3  C   UNL     1      -7.112  10.359  50.896  0.00  0.00    +0.000 A 
ATOM      4  C   UNL     1      -6.130   9.386  50.770  0.00  0.00    +0.000 A 
ATOM      5  C   UNL     1      -5.259   9.513  49.695  0.00  0.00    +0.000 A 
ATOM      6  C   UNL     1      -5.563  10.337  48.619  0.00  0.00    +0.000 A 
ATOM      7  C   UNL     1      -6.560   8.223  51.543  0.00  0.00    +0.000 C 
ATOM      8  C   UNL     1      -6.327   6.933  51.307  0.00  0.00    +0.000 C 
ATOM      9  C   UNL     1      -7.571   8.739  52.473  0.00  0.00    +0.000 C 
ATOM     10  O   UNL     1      -8.235   7.992  53.237  0.00  0.00    +0.000 OA
ATOM     11  N   UNL     1      -8.036   9.972  51.912  0.00  0.00    +0.000 NA
ENDROOT
BRANCH   8  12
ATOM     12  C   UNL     1      -6.562   5.951  52.374  0.00  0.00    +0.000 A 
ATOM     13  C   UNL     1      -7.429   4.916  52.071  0.00  0.00    +0.000 A 
ATOM     14  C   UNL     1      -7.458   3.842  52.926  0.00  0.00    +0.000 A 
ATOM     15  C   UNL     1      -6.282   3.488  53.549  0.00  0.00    +0.000 A 
ATOM     16  C   UNL     1      -5.458   4.525  53.971  0.00  0.00    +0.000 A 
ATOM     17  C   UNL     1      -5.579   5.753  53.337  0.00  0.00    +0.000 A 
BRANCH  14  18
ATOM     18  O   UNL     1      -8.585   3.029  53.089  0.00  0.00    +0.000 OA
ATOM     19  C   UNL     1      -8.994   2.313  51.929  0.00  0.00    +0.000 C 
ENDBRANCH  14  18
BRANCH  15  20
ATOM     20  O   UNL     1      -6.014   2.193  53.929  0.00  0.00    +0.000 OA
ATOM     21  C   UNL     1      -5.374   1.352  52.974  0.00  0.00    +0.000 C 
ENDBRANCH  15  20
BRANCH  16  22
ATOM     22  O   UNL     1      -4.366   4.319  54.796  0.00  0.00    +0.000 OA
ATOM     23  C   UNL     1      -3.049   4.194  54.306  0.00  0.00    +0.000 C 
ENDBRANCH  16  22
ENDBRANCH   8  12
BRANCH   1  25
ATOM     24  C   UNL     1      -5.758  13.666  48.421  0.00  0.00    +0.000 C 
ATOM     25  O   UNL     1      -6.402  12.476  47.971  0.00  0.00    +0.000 OA
ENDBRANCH   1  25
BRANCH   6  26
ATOM     26  O   UNL     1      -4.698  10.364  47.547  0.00  0.00    +0.000 OA
ATOM     27  C   UNL     1      -3.329  10.663  47.657  0.00  0.00    +0.000 C 
ENDBRANCH   6  26
TORSDOF 6
ENDMDL
MODEL 3
REMARK VINA RESULT:      -0.0     14.296     16.175
REMARK  Name = 
REMARK  6 active torsions:
REMARK  status: ('A' for Active; 'I' for Inactive)
REMARK    1  A    between atoms: O_2  and  C_3
REMARK    2  A    between atoms: C_8  and  O_9
REMARK    3  A    between atoms: C_12  and  C_13
REMARK    4  A    between atoms: C_15  and  O_16
REMARK    5  A    between atoms: C_18  and  O_19
REMARK    6  A    between atoms: C_21  and  O_22
REMARK                            x       y       z     vdW  Elec       q    Type
REMARK                         _______ _______ _______ _____ _____    ______ ____
ROOT
ATOM      1  C   UNL     1      12.504  14.743  73.711  0.00  0.00    +0.000 A 
ATOM      2  C   UNL     1      12.772  13.467  74.188  0.00  0.00    +0.000 A 
ATOM      3  C   UNL     1      11.767  12.506  74.151  0.00  0.00    +0.000 A 
ATOM      4  C   UNL     1      10.755  12.633  73.210  0.00  0.00    +0.000 A 
ATOM      5  C   UNL     1      10.708  13.825  72.500  0.00  0.00    +0.000 A 
ATOM      6  C   UNL     1      11.390  14.952  72.942  0.00  0.00    +0.000 A 
ATOM      7  C   UNL     1       9.721  11.655  73.541  0.00  0.00    +0.000 C 
ATOM      8  C   UNL     1       8.404  11.742  73.362  0.00  0.00    +0.000 C 
ATOM      9  C   UNL     1      10.389  10.673  74.403  0.00  0.00    +0.000 C 
ATOM     10  O   UNL     1       9.774   9.729  74.962  0.00  0.00    +0.000 OA
ATOM     11  N   UNL     1      11.551  11.328  74.927  0.00  0.00    +0.000 NA
ENDROOT
BRANCH   8  12
ATOM     12  C   UNL     1       7.582  10.528  73.456  0.00  0.00    +0.000 A 
ATOM     13  C   UNL     1       6.545  10.562  74.371  0.00  0.00    +0.000 A 
ATOM     14  C   UNL     1       5.596   9.572  74.293  0.00  0.00    +0.000 A 
ATOM     15  C   UNL     1       5.291   9.076  73.045  0.00  0.00    +0.000 A 
ATOM     16  C   UNL     1       6.348   8.919  72.156  0.00  0.00    +0.000 A 
ATOM     17  C   UNL     1       7.483   9.692  72.349  0.00  0.00    +0.000 A 
BRANCH  14  18
ATOM     18  O   UNL     1       4.849   9.144  75.396  0.00  0.00    +0.000 OA
ATOM     19  C   UNL     1       3.999  10.127  75.975  0.00  0.00    +0.000 C 
ENDBRANCH  14  18
BRANCH  15  20
ATOM     20  O   UNL     1       4.050   8.562  72.742  0.00  0.00    +0.000 OA
ATOM     21  C   UNL     1       3.068   9.473  72.257  0.00  0.00    +0.000 C 
ENDBRANCH  15  20
BRANCH  16  22
ATOM     22  O   UNL     1       6.219   8.233  70.960  0.00  0.00    +0.000 OA
ATOM     23  C   UNL     1       5.985   8.879  69.727  0.00  0.00    +0.000 C 
ENDBRANCH  16  22
ENDBRANCH   8  12
BRANCH   1  25
ATOM     24  C   UNL     1      14.668  15.575  73.120  0.00  0.00    +0.000 C 
ATOM     25  O   UNL     1      13.449  15.764  73.836  0.00  0.00    +0.000 OA
ENDBRANCH   1  25
BRANCH   6  26
ATOM     26  O   UNL     1      11.245  16.127  72.238  0.00  0.00    +0.000 OA
ATOM     27  C   UNL     1      11.513  16.250  70.864  0.00  0.00    +0.000 C 
ENDBRANCH   6  26
TORSDOF 6
ENDMDL
MODEL 4
REMARK VINA RESULT:      -0.0     13.925     17.039
REMARK  Name = 
REMARK  6 active torsions:
REMARK  status: ('A' for Active; 'I' for Inactive)
REMARK    1  A    between atoms: O_2  and  C_3
REMARK    2  A    between atoms: C_8  and  O_9
REMARK    3  A    between atoms: C_12  and  C_13
REMARK    4  A    between atoms: C_15  and  O_16
REMARK    5  A    between atoms: C_18  and  O_19
REMARK    6  A    between atoms: C_21  and  O_22
REMARK                            x       y       z     vdW  Elec       q    Type
REMARK                         _______ _______ _______ _____ _____    ______ ____
ROOT
ATOM      1  C   UNL     1     -10.379  29.246  71.913  0.00  0.00    +0.000 A 
ATOM      2  C   UNL     1     -10.087  29.414  70.565  0.00  0.00    +0.000 A 
ATOM      3  C   UNL     1     -10.563  30.543  69.907  0.00  0.00    +0.000 A 
ATOM      4  C   UNL     1     -10.830  31.686  70.647  0.00  0.00    +0.000 A 
ATOM      5  C   UNL     1     -10.793  31.559  72.029  0.00  0.00    +0.000 A 
ATOM      6  C   UNL     1     -10.846  30.310  72.636  0.00  0.00    +0.000 A 
ATOM      7  C   UNL     1     -11.536  32.622  69.774  0.00  0.00    +0.000 C 
ATOM      8  C   UNL     1     -12.465  33.521  70.094  0.00  0.00    +0.000 C 
ATOM      9  C   UNL     1     -11.244  32.162  68.411  0.00  0.00    +0.000 C 
ATOM     10  O   UNL     1     -11.771  32.679  67.392  0.00  0.00    +0.000 OA
ATOM     11  N   UNL     1     -10.843  30.792  68.530  0.00  0.00    +0.000 NA
ENDROOT
BRANCH   8  12
ATOM     12  C   UNL     1     -12.804  34.580  69.133  0.00  0.00    +0.000 A 
ATOM     13  C   UNL     1     -14.137  34.671  68.772  0.00  0.00    +0.000 A 
ATOM     14  C   UNL     1     -14.537  35.803  68.106  0.00  0.00    +0.000 A 
ATOM     15  C   UNL     1     -13.909  36.988  68.422  0.00  0.00    +0.000 A 
ATOM     16  C   UNL     1     -12.542  36.928  68.666  0.00  0.00    +0.000 A 
ATOM     17  C   UNL     1     -12.004  35.715  69.069  0.00  0.00    +0.000 A 
BRANCH  14  18
ATOM     18  O   UNL     1     -15.624  35.825  67.226  0.00  0.00    +0.000 OA
ATOM     19  C   UNL     1     -16.888  35.532  67.810  0.00  0.00    +0.000 C 
ENDBRANCH  14  18
BRANCH  15  20
ATOM     20  O   UNL     1     -14.539  38.206  68.306  0.00  0.00    +0.000 OA
ATOM     21  C   UNL     1     -15.274  38.671  69.435  0.00  0.00    +0.000 C 
ENDBRANCH  15  20
BRANCH  16  22
ATOM     22  O   UNL     1     -11.755  38.062  68.778  0.00  0.00    +0.000 OA
ATOM     23  C   UNL     1     -11.405  38.632  70.020  0.00  0.00    +0.000 C 
ENDBRANCH  16  22
ENDBRANCH   8  12
BRANCH   1  25
ATOM     24  C   UNL     1      -8.616  27.823  72.683  0.00  0.00    +0.000 C 
ATOM     25  O   UNL     1     -10.016  28.072  72.579  0.00  0.00    +0.000 OA
ENDBRANCH   1  25
BRANCH   6  26
ATOM     26  O   UNL     1     -10.883  30.249  74.012  0.00  0.00    +0.000 OA
ATOM     27  C   UNL     1      -9.920  30.844  74.845  0.00  0.00    +0.000 C 
ENDBRANCH   6  26
TORSDOF 6
ENDMDL
MODEL 5
REMARK VINA RESULT:       0.0      6.750     10.563
REMARK  Name = 
REMARK  6 active torsions:
REMARK  status: ('A' for Active; 'I' for Inactive)
REMARK    1  A    between atoms: O_2  and  C_3
REMARK    2  A    between atoms: C_8  and  O_9
REMARK    3  A    between atoms: C_12  and  C_13
REMARK    4  A    between atoms: C_15  and  O_16
REMARK    5  A    between atoms: C_18  and  O_19
REMARK    6  A    between atoms: C_21  and  O_22
REMARK                            x       y       z     vdW  Elec       q    Type
REMARK                         _______ _______ _______ _____ _____    ______ ____
ROOT
ATOM      1  C   UNL     1     -10.958  15.182  69.659  0.00  0.00    +0.000 A 
ATOM      2  C   UNL     1      -9.809  15.717  69.091  0.00  0.00    +0.000 A 
ATOM      3  C   UNL     1      -8.611  15.020  69.206  0.00  0.00    +0.000 A 
ATOM      4  C   UNL     1      -8.651  13.644  69.380  0.00  0.00    +0.000 A 
ATOM      5  C   UNL     1      -9.896  13.083  69.630  0.00  0.00    +0.000 A 
ATOM      6  C   UNL     1     -10.968  13.866  70.039  0.00  0.00    +0.000 A 
ATOM      7  C   UNL     1      -7.298  13.202  69.713  0.00  0.00    +0.000 C 
ATOM      8  C   UNL     1      -6.921  12.191  70.494  0.00  0.00    +0.000 C 
ATOM      9  C   UNL     1      -6.423  14.291  69.264  0.00  0.00    +0.000 C 
ATOM     10  O   UNL     1      -5.183  14.297  69.478  0.00  0.00    +0.000 OA
ATOM     11  N   UNL     1      -7.252  15.455  69.167  0.00  0.00    +0.000 NA
ENDROOT
BRANCH   8  12
ATOM     12  C   UNL     1      -5.532  11.713  70.433  0.00  0.00    +0.000 A 
ATOM     13  C   UNL     1      -4.839  11.702  71.630  0.00  0.00    +0.000 A 
ATOM     14  C   UNL     1      -3.652  11.012  71.669  0.00  0.00    +0.000 A 
ATOM     15  C   UNL     1      -3.545   9.880  70.893  0.00  0.00    +0.000 A 
ATOM     16  C   UNL     1      -4.133   9.924  69.634  0.00  0.00    +0.000 A 
ATOM     17  C   UNL     1      -5.167  10.825  69.429  0.00  0.00    +0.000 A 
BRANCH  14  18
ATOM     18  O   UNL     1      -2.612  11.335  72.547  0.00  0.00    +0.000 OA
ATOM     19  C   UNL     1      -2.916  11.199  73.931  0.00  0.00    +0.000 C 
ENDBRANCH  14  18
BRANCH  15  20
ATOM     20  O   UNL     1      -2.728   8.827  71.238  0.00  0.00    +0.000 OA
ATOM     21  C   UNL     1      -3.290   7.808  72.060  0.00  0.00    +0.000 C 
ENDBRANCH  15  20
BRANCH  16  22
ATOM     22  O   UNL     1      -3.914   8.949  68.675  0.00  0.00    +0.000 OA
ATOM     23  C   UNL     1      -4.801   7.872  68.462  0.00  0.00    +0.000 C 
ENDBRANCH  16  22
ENDBRANCH   8  12
BRANCH   1  25
ATOM     24  C   UNL     1     -12.719  16.181  68.384  0.00  0.00    +0.000 C 
ATOM     25  O   UNL     1     -12.154  15.904  69.664  0.00  0.00    +0.000 OA
ENDBRANCH   1  25
BRANCH   6  26
ATOM     26  O   UNL     1     -12.158  13.244  70.346  0.00  0.00    +0.000 OA
ATOM     27  C   UNL     1     -12.846  12.396  69.461  0.00  0.00    +0.000 C 
ENDBRANCH   6  26
TORSDOF 6
ENDMDL
MODEL 6
REMARK VINA RESULT:       0.0     20.681     22.425
REMARK  Name = 
REMARK  6 active torsions:
REMARK  status: ('A' for Active; 'I' for Inactive)
REMARK    1  A    between atoms: O_2  and  C_3
REMARK    2  A    between atoms: C_8  and  O_9
REMARK    3  A    between atoms: C_12  and  C_13
REMARK    4  A    between atoms: C_15  and  O_16
REMARK    5  A    between atoms: C_18  and  O_19
REMARK    6  A    between atoms: C_21  and  O_22
REMARK                            x       y       z     vdW  Elec       q    Type
REMARK                         _______ _______ _______ _____ _____    ______ ____
ROOT
ATOM      1  C   UNL     1       4.539  11.694  49.963  0.00  0.00    +0.000 A 
ATOM      2  C   UNL     1       3.907  11.966  48.756  0.00  0.00    +0.000 A 
ATOM      3  C   UNL     1       2.669  11.388  48.496  0.00  0.00    +0.000 A 
ATOM      4  C   UNL     1       1.864  11.021  49.565  0.00  0.00    +0.000 A 
ATOM      5  C   UNL     1       2.441  11.073  50.827  0.00  0.00    +0.000 A 
ATOM      6  C   UNL     1       3.820  11.134  50.985  0.00  0.00    +0.000 A 
ATOM      7  C   UNL     1       0.756  10.231  49.032  0.00  0.00    +0.000 C 
ATOM      8  C   UNL     1       0.098   9.225  49.606  0.00  0.00    +0.000 C 
ATOM      9  C   UNL     1       0.710  10.561  47.603  0.00  0.00    +0.000 C 
ATOM     10  O   UNL     1      -0.070   9.987  46.798  0.00  0.00    +0.000 OA
ATOM     11  N   UNL     1       2.001  11.084  47.272  0.00  0.00    +0.000 NA
ENDROOT
BRANCH   8  12
ATOM     12  C   UNL     1      -1.187   8.790  49.041  0.00  0.00    +0.000 A 
ATOM     13  C   UNL     1      -1.279   7.453  48.695  0.00  0.00    +0.000 A 
ATOM     14  C   UNL     1      -2.529   6.951  48.431  0.00  0.00    +0.000 A 
ATOM     15  C   UNL     1      -3.591   7.472  49.139  0.00  0.00    +0.000 A 
ATOM     16  C   UNL     1      -3.570   8.839  49.385  0.00  0.00    +0.000 A 
ATOM     17  C   UNL     1      -2.342   9.485  49.377  0.00  0.00    +0.000 A 
BRANCH  14  18
ATOM     18  O   UNL     1      -2.749   5.864  47.579  0.00  0.00    +0.000 OA
ATOM     19  C   UNL     1      -2.172   4.633  48.000  0.00  0.00    +0.000 C 
ENDBRANCH  14  18
BRANCH  15  20
ATOM     20  O   UNL     1      -4.720   6.735  49.416  0.00  0.00    +0.000 OA
ATOM     21  C   UNL     1      -4.719   5.967  50.616  0.00  0.00    +0.000 C 
ENDBRANCH  15  20
BRANCH  16  22
ATOM     22  O   UNL     1      -4.665   9.522  49.887  0.00  0.00    +0.000 OA
ATOM     23  C   UNL     1      -4.820   9.821  51.257  0.00  0.00    +0.000 C 
ENDBRANCH  16  22
ENDBRANCH   8  12
BRANCH   1  25
ATOM     24  C   UNL     1       5.980  13.579  50.267  0.00  0.00    +0.000 C 
ATOM     25  O   UNL     1       5.831  12.162  50.212  0.00  0.00    +0.000 OA
ENDBRANCH   1  25
BRANCH   6  26
ATOM     26  O   UNL     1       4.338  11.106  52.261  0.00  0.00    +0.000 OA
ATOM     27  C   UNL     1       3.974  12.013  53.270  0.00  0.00    +0.000 C 
ENDBRANCH   6  26
TORSDOF 6
ENDMDL
MODEL 7
REMARK VINA RESULT:       0.0     19.817     23.431
REMARK  Name = 
REMARK  6 active torsions:
REMARK  status: ('A' for Active; 'I' for Inactive)
REMARK    1  A    between atoms: O_2  and  C_3
REMARK    2  A    between atoms: C_8  and  O_9
REMARK    3  A    between atoms: C_12  and  C_13
REMARK    4  A    between atoms: C_15  and  O_16
REMARK    5  A    between atoms: C_18  and  O_19
REMARK    6  A    between atoms: C_21  and  O_22
REMARK                            x       y       z     vdW  Elec       q    Type
REMARK                         _______ _______ _______ _____ _____    ______ ____
ROOT
ATOM      1  C   UNL     1      13.262  24.591  62.511  0.00  0.00    +0.000 A 
ATOM      2  C   UNL     1      13.456  25.931  62.201  0.00  0.00    +0.000 A 
ATOM      3  C   UNL     1      14.271  26.703  63.021  0.00  0.00    +0.000 A 
ATOM      4  C   UNL     1      15.259  26.074  63.766  0.00  0.00    +0.000 A 
ATOM      5  C   UNL     1      15.232  24.686  63.792  0.00  0.00    +0.000 A 
ATOM      6  C   UNL     1      14.098  23.982  63.408  0.00  0.00    +0.000 A 
ATOM      7  C   UNL     1      15.795  27.056  64.706  0.00  0.00    +0.000 C 
ATOM      8  C   UNL     1      16.277  26.859  65.932  0.00  0.00    +0.000 C 
ATOM      9  C   UNL     1      15.412  28.359  64.153  0.00  0.00    +0.000 C 
ATOM     10  O   UNL     1      15.625  29.443  64.755  0.00  0.00    +0.000 OA
ATOM     11  N   UNL     1      14.315  28.109  63.265  0.00  0.00    +0.000 NA
ENDROOT
BRANCH   8  12
ATOM     12  C   UNL     1      17.065  27.919  66.576  0.00  0.00    +0.000 A 
ATOM     13  C   UNL     1      16.610  28.354  67.809  0.00  0.00    +0.000 A 
ATOM     14  C   UNL     1      17.458  29.130  68.560  0.00  0.00    +0.000 A 
ATOM     15  C   UNL     1      18.810  28.880  68.462  0.00  0.00    +0.000 A 
ATOM     16  C   UNL     1      19.300  28.563  67.201  0.00  0.00    +0.000 A 
ATOM     17  C   UNL     1      18.416  28.036  66.271  0.00  0.00    +0.000 A 
BRANCH  14  18
ATOM     18  O   UNL     1      17.006  30.062  69.499  0.00  0.00    +0.000 OA
ATOM     19  C   UNL     1      16.285  29.519  70.599  0.00  0.00    +0.000 C 
ENDBRANCH  14  18
BRANCH  15  20
ATOM     20  O   UNL     1      19.679  29.127  69.500  0.00  0.00    +0.000 OA
ATOM     21  C   UNL     1      19.891  28.076  70.438  0.00  0.00    +0.000 C 
ENDBRANCH  15  20
BRANCH  16  22
ATOM     22  O   UNL     1      20.655  28.506  66.921  0.00  0.00    +0.000 OA
ATOM     23  C   UNL     1      21.386  27.299  66.919  0.00  0.00    +0.000 C 
ENDBRANCH  16  22
ENDBRANCH   8  12
BRANCH   1  25
ATOM     24  C   UNL     1      12.684  23.617  60.404  0.00  0.00    +0.000 C 
ATOM     25  O   UNL     1      12.361  23.813  61.779  0.00  0.00    +0.000 OA
ENDBRANCH   1  25
BRANCH   6  26
ATOM     26  O   UNL     1      14.103  22.610  63.528  0.00  0.00    +0.000 OA
ATOM     27  C   UNL     1      15.070  21.779  62.937  0.00  0.00    +0.000 C 
ENDBRANCH   6  26
TORSDOF 6
ENDMDL
MODEL 8
REMARK VINA RESULT:       0.0     20.383     24.331
REMARK  Name = 
REMARK  6 active torsions:
REMARK  status: ('A' for Active; 'I' for Inactive)
REMARK    1  A    between atoms: O_2  and  C_3
REMARK    2  A    between atoms: C_8  and  O_9
REMARK    3  A    between atoms: C_12  and  C_13
REMARK    4  A    between atoms: C_15  and  O_16
REMARK    5  A    between atoms: C_18  and  O_19
REMARK    6  A    between atoms: C_21  and  O_22
REMARK                            x       y       z     vdW  Elec       q    Type
REMARK                         _______ _______ _______ _____ _____    ______ ____
ROOT
ATOM      1  C   UNL     1      19.372  26.350  61.951  0.00  0.00    +0.000 A 
ATOM      2  C   UNL     1      18.808  25.947  60.747  0.00  0.00    +0.000 A 
ATOM      3  C   UNL     1      17.732  26.661  60.232  0.00  0.00    +0.000 A 
ATOM      4  C   UNL     1      17.582  27.994  60.589  0.00  0.00    +0.000 A 
ATOM      5  C   UNL     1      18.408  28.467  61.600  0.00  0.00    +0.000 A 
ATOM      6  C   UNL     1      19.081  27.593  62.445  0.00  0.00    +0.000 A 
ATOM      7  C   UNL     1      16.268  28.430  60.121  0.00  0.00    +0.000 C 
ATOM      8  C   UNL     1      15.446  29.328  60.663  0.00  0.00    +0.000 C 
ATOM      9  C   UNL     1      15.888  27.453  59.095  0.00  0.00    +0.000 C 
ATOM     10  O   UNL     1      14.761  27.459  58.535  0.00  0.00    +0.000 OA
ATOM     11  N   UNL     1      16.683  26.287  59.340  0.00  0.00    +0.000 NA
ENDROOT
BRANCH   8  12
ATOM     12  C   UNL     1      14.332  29.859  59.866  0.00  0.00    +0.000 A 
ATOM     13  C   UNL     1      13.069  29.715  60.411  0.00  0.00    +0.000 A 
ATOM     14  C   UNL     1      12.047  30.434  59.842  0.00  0.00    +0.000 A 
ATOM     15  C   UNL     1      12.348  31.673  59.322  0.00  0.00    +0.000 A 
ATOM     16  C   UNL     1      13.564  31.797  58.660  0.00  0.00    +0.000 A 
ATOM     17  C   UNL     1      14.574  30.901  58.978  0.00  0.00    +0.000 A 
BRANCH  14  18
ATOM     18  O   UNL     1      10.711  30.021  59.882  0.00  0.00    +0.000 OA
ATOM     19  C   UNL     1      10.137  29.936  61.182  0.00  0.00    +0.000 C 
ENDBRANCH  14  18
BRANCH  15  20
ATOM     20  O   UNL     1      11.423  32.691  59.266  0.00  0.00    +0.000 OA
ATOM     21  C   UNL     1      11.329  33.549  60.399  0.00  0.00    +0.000 C 
ENDBRANCH  15  20
BRANCH  16  22
ATOM     22  O   UNL     1      13.892  32.912  57.908  0.00  0.00    +0.000 OA
ATOM     23  C   UNL     1      14.672  33.974  58.412  0.00  0.00    +0.000 C 
ENDBRANCH  16  22
ENDBRANCH   8  12
BRANCH   1  25
ATOM     24  C   UNL     1      21.601  25.488  61.831  0.00  0.00    +0.000 C 
ATOM     25  O   UNL     1      20.378  25.592  62.556  0.00  0.00    +0.000 OA
ENDBRANCH   1  25
BRANCH   6  26
ATOM     26  O   UNL     1      19.825  28.119  63.478  0.00  0.00    +0.000 OA
ATOM     27  C   UNL     1      20.851  29.063  63.297  0.00  0.00    +0.000 C 
ENDBRANCH   6  26
TORSDOF 6
ENDMDL
MODEL 9
REMARK VINA RESULT:       0.0     21.781     24.767
REMARK  Name = 
REMARK  6 active torsions:
REMARK  status: ('A' for Active; 'I' for Inactive)
REMARK    1  A    between atoms: O_2  and  C_3
REMARK    2  A    between atoms: C_8  and  O_9
REMARK    3  A    between atoms: C_12  and  C_13
REMARK    4  A    between atoms: C_15  and  O_16
REMARK    5  A    between atoms: C_18  and  O_19
REMARK    6  A    between atoms: C_21  and  O_22
REMARK                            x       y       z     vdW  Elec       q    Type
REMARK                         _______ _______ _______ _____ _____    ______ ____
ROOT
ATOM      1  C   UNL     1      13.579  24.343  80.046  0.00  0.00    +0.000 A 
ATOM      2  C   UNL     1      12.954  23.689  81.099  0.00  0.00    +0.000 A 
ATOM      3  C   UNL     1      13.549  22.553  81.638  0.00  0.00    +0.000 A 
ATOM      4  C   UNL     1      14.923  22.397  81.519  0.00  0.00    +0.000 A 
ATOM      5  C   UNL     1      15.584  23.294  80.690  0.00  0.00    +0.000 A 
ATOM      6  C   UNL     1      14.889  24.061  79.763  0.00  0.00    +0.000 A 
ATOM      7  C   UNL     1      15.250  21.036  81.939  0.00  0.00    +0.000 C 
ATOM      8  C   UNL     1      16.222  20.239  81.499  0.00  0.00    +0.000 C 
ATOM      9  C   UNL     1      14.095  20.596  82.731  0.00  0.00    +0.000 C 
ATOM     10  O   UNL     1      13.985  19.425  83.179  0.00  0.00    +0.000 OA
ATOM     11  N   UNL     1      13.004  21.441  82.348  0.00  0.00    +0.000 NA
ENDROOT
BRANCH   8  12
ATOM     12  C   UNL     1      16.584  19.046  82.276  0.00  0.00    +0.000 A 
ATOM     13  C   UNL     1      16.529  17.839  81.602  0.00  0.00    +0.000 A 
ATOM     14  C   UNL     1      17.119  16.752  82.199  0.00  0.00    +0.000 A 
ATOM     15  C   UNL     1      18.244  16.972  82.963  0.00  0.00    +0.000 A 
ATOM     16  C   UNL     1      18.257  18.123  83.742  0.00  0.00    +0.000 A 
ATOM     17  C   UNL     1      17.446  19.181  83.358  0.00  0.00    +0.000 A 
BRANCH  14  18
ATOM     18  O   UNL     1      16.705  15.436  81.964  0.00  0.00    +0.000 OA
ATOM     19  C   UNL     1      16.858  14.978  80.626  0.00  0.00    +0.000 C 
ENDBRANCH  14  18
BRANCH  15  20
ATOM     20  O   UNL     1      19.223  16.018  83.120  0.00  0.00    +0.000 OA
ATOM     21  C   UNL     1      20.277  16.001  82.162  0.00  0.00    +0.000 C 
ENDBRANCH  15  20
BRANCH  16  22
ATOM     22  O   UNL     1      19.218  18.354  84.713  0.00  0.00    +0.000 OA
ATOM     23  C   UNL     1      20.364  19.144  84.484  0.00  0.00    +0.000 C 
ENDBRANCH  16  22
ENDBRANCH   8  12
BRANCH   1  25
ATOM     24  C   UNL     1      12.736  26.576  80.206  0.00  0.00    +0.000 C 
ATOM     25  O   UNL     1      12.958  25.418  79.405  0.00  0.00    +0.000 OA
ENDBRANCH   1  25
BRANCH   6  26
ATOM     26  O   UNL     1      15.605  24.876  78.916  0.00  0.00    +0.000 OA
ATOM     27  C   UNL     1      16.512  25.855  79.357  0.00  0.00    +0.000 C 
ENDBRANCH   6  26
TORSDOF 6
ENDMDL
MODEL 10
REMARK VINA RESULT:       0.0     24.919     27.398
REMARK  Name = 
REMARK  6 active torsions:
REMARK  status: ('A' for Active; 'I' for Inactive)
REMARK    1  A    between atoms: O_2  and  C_3
REMARK    2  A    between atoms: C_8  and  O_9
REMARK    3  A    between atoms: C_12  and  C_13
REMARK    4  A    between atoms: C_15  and  O_16
REMARK    5  A    between atoms: C_18  and  O_19
REMARK    6  A    between atoms: C_21  and  O_22
REMARK                            x       y       z     vdW  Elec       q    Type
REMARK                         _______ _______ _______ _____ _____    ______ ____
ROOT
ATOM      1  C   UNL     1      25.209  21.800  66.329  0.00  0.00    +0.000 A 
ATOM      2  C   UNL     1      23.958  21.239  66.554  0.00  0.00    +0.000 A 
ATOM      3  C   UNL     1      22.859  21.739  65.865  0.00  0.00    +0.000 A 
ATOM      4  C   UNL     1      23.064  22.367  64.644  0.00  0.00    +0.000 A 
ATOM      5  C   UNL     1      24.381  22.629  64.289  0.00  0.00    +0.000 A 
ATOM      6  C   UNL     1      25.398  22.601  65.235  0.00  0.00    +0.000 A 
ATOM      7  C   UNL     1      21.806  23.004  64.259  0.00  0.00    +0.000 C 
ATOM      8  C   UNL     1      21.618  24.125  63.565  0.00  0.00    +0.000 C 
ATOM      9  C   UNL     1      20.779  22.329  65.060  0.00  0.00    +0.000 C 
ATOM     10  O   UNL     1      19.573  22.687  65.060  0.00  0.00    +0.000 OA
ATOM     11  N   UNL     1      21.464  21.732  66.167  0.00  0.00    +0.000 NA
ENDROOT
BRANCH   8  12
ATOM     12  C   UNL     1      20.290  24.413  63.006  0.00  0.00    +0.000 A 
ATOM     13  C   UNL     1      19.723  25.621  63.373  0.00  0.00    +0.000 A 
ATOM     14  C   UNL     1      18.628  26.048  62.664  0.00  0.00    +0.000 A 
ATOM     15  C   UNL     1      18.565  25.727  61.326  0.00  0.00    +0.000 A 
ATOM     16  C   UNL     1      19.018  24.464  60.962  0.00  0.00    +0.000 A 
ATOM     17  C   UNL     1      19.925  23.830  61.799  0.00  0.00    +0.000 A 
BRANCH  14  18
ATOM     18  O   UNL     1      17.650  26.890  63.207  0.00  0.00    +0.000 OA
ATOM     19  C   UNL     1      18.103  28.184  63.587  0.00  0.00    +0.000 C 
ENDBRANCH  14  18
BRANCH  15  20
ATOM     20  O   UNL     1      17.905  26.516  60.412  0.00  0.00    +0.000 OA
ATOM     21  C   UNL     1      18.652  27.554  59.785  0.00  0.00    +0.000 C 
ENDBRANCH  15  20
BRANCH  16  22
ATOM     22  O   UNL     1      18.812  23.935  59.699  0.00  0.00    +0.000 OA
ATOM     23  C   UNL     1      19.783  23.988  58.678  0.00  0.00    +0.000 C 
ENDBRANCH  16  22
ENDBRANCH   8  12
BRANCH   1  25
ATOM     24  C   UNL     1      26.717  20.042  66.930  0.00  0.00    +0.000 C 
ATOM     25  O   UNL     1      26.315  21.401  67.084  0.00  0.00    +0.000 OA
ENDBRANCH   1  25
BRANCH   6  26
ATOM     26  O   UNL     1      26.672  22.944  64.840  0.00  0.00    +0.000 OA
ATOM     27  C   UNL     1      27.355  22.320  63.783  0.00  0.00    +0.000 C 
ENDBRANCH   6  26
TORSDOF 6
ENDMDL
