REMARK  Name = 
REMARK  6 active torsions:
REMARK  status: ('A' for Active; 'I' for Inactive)
REMARK    1  A    between atoms: O_2  and  C_3
REMARK    2  A    between atoms: C_6  and  C_7
REMARK    3  A    between atoms: C_8  and  C_9
REMARK    4  A    between atoms: C_11  and  O_12
REMARK    5  A    between atoms: C_15  and  O_16
REMARK    6  A    between atoms: C_19  and  O_20
REMARK                            x       y       z     vdW  Elec       q    Type
REMARK                         _______ _______ _______ _____ _____    ______ ____
ROOT
ATOM      1  C   UNL     1       0.607  -0.265   0.463  0.00  0.00    +0.000 C 
ATOM      2  C   UNL     1      -0.156  -0.697  -0.517  0.00  0.00    +0.000 C 
ENDROOT
BRANCH   1   6
ATOM      3  C   UNL     1       4.731  -0.460   0.225  0.00  0.00    +0.000 A 
ATOM      4  C   UNL     1       4.084  -1.191   1.213  0.00  0.00    +0.000 A 
ATOM      5  C   UNL     1       2.706  -1.101   1.352  0.00  0.00    +0.000 A 
ATOM      6  C   UNL     1       2.052  -0.272   0.450  0.00  0.00    +0.000 A 
ATOM      7  C   UNL     1       2.766   0.841   0.024  0.00  0.00    +0.000 A 
ATOM      8  C   UNL     1       4.067   0.592  -0.393  0.00  0.00    +0.000 A 
BRANCH   3  10
ATOM      9  C   UNL     1       6.860   0.048  -0.878  0.00  0.00    +0.000 C 
ATOM     10  O   UNL     1       6.121  -0.562   0.165  0.00  0.00    +0.000 OA
ENDBRANCH   3  10
BRANCH   7  11
ATOM     11  O   UNL     1       2.093   1.984  -0.418  0.00  0.00    +0.000 OA
ATOM     12  C   UNL     1       1.331   2.747   0.516  0.00  0.00    +0.000 C 
ENDBRANCH   7  11
ENDBRANCH   1   6
BRANCH   2  13
ATOM     13  C   UNL     1      -1.610  -0.552  -0.378  0.00  0.00    +0.000 A 
ATOM     14  C   UNL     1      -2.403  -0.372  -1.505  0.00  0.00    +0.000 A 
ATOM     15  C   UNL     1      -3.780  -0.407  -1.327  0.00  0.00    +0.000 A 
ATOM     16  C   UNL     1      -4.338  -0.128  -0.086  0.00  0.00    +0.000 A 
ATOM     17  C   UNL     1      -3.508   0.133   0.975  0.00  0.00    +0.000 A 
ATOM     18  C   UNL     1      -2.169  -0.115   0.815  0.00  0.00    +0.000 A 
BRANCH  15  19
ATOM     19  O   UNL     1      -4.552  -0.468  -2.465  0.00  0.00    +0.000 OA
ATOM     20  C   UNL     1      -5.847  -1.004  -2.541  0.00  0.00    +0.000 C 
ENDBRANCH  15  19
BRANCH  17  21
ATOM     21  O   UNL     1      -3.855   0.976   2.034  0.00  0.00    +0.000 OA
ATOM     22  C   UNL     1      -5.202   1.295   2.277  0.00  0.00    +0.000 C 
ENDBRANCH  17  21
ENDBRANCH   2  13
TORSDOF 6
