MODEL 1
REMARK VINA RESULT:       0.0      0.000      0.000
REMARK  Name = 
REMARK  6 active torsions:
REMARK  status: ('A' for Active; 'I' for Inactive)
REMARK    1  A    between atoms: O_2  and  C_3
REMARK    2  A    between atoms: C_6  and  C_7
REMARK    3  A    between atoms: C_8  and  C_9
REMARK    4  A    between atoms: C_11  and  O_12
REMARK    5  A    between atoms: C_15  and  O_16
REMARK    6  A    between atoms: C_19  and  O_20
REMARK                            x       y       z     vdW  Elec       q    Type
REMARK                         _______ _______ _______ _____ _____    ______ ____
ROOT
ATOM      1  C   UNL     1       1.169  15.428  55.601  0.00  0.00    +0.000 C 
ATOM      2  C   UNL     1       0.937  14.875  54.431  0.00  0.00    +0.000 C 
ENDROOT
BRANCH   1   6
ATOM      3  C   UNL     1       2.424  13.598  59.090  0.00  0.00    +0.000 A 
ATOM      4  C   UNL     1       3.144  13.376  57.923  0.00  0.00    +0.000 A 
ATOM      5  C   UNL     1       2.714  13.932  56.726  0.00  0.00    +0.000 A 
ATOM      6  C   UNL     1       1.566  14.711  56.790  0.00  0.00    +0.000 A 
ATOM      7  C   UNL     1       0.626  14.325  57.737  0.00  0.00    +0.000 A 
ATOM      8  C   UNL     1       1.125  14.082  59.010  0.00  0.00    +0.000 A 
BRANCH   3  10
ATOM      9  C   UNL     1       4.002  12.105  60.226  0.00  0.00    +0.000 C 
ATOM     10  O   UNL     1       2.886  12.976  60.250  0.00  0.00    +0.000 OA
ENDBRANCH   3  10
BRANCH   7  11
ATOM     11  O   UNL     1      -0.724  14.643  57.561  0.00  0.00    +0.000 OA
ATOM     12  C   UNL     1      -1.656  13.597  57.293  0.00  0.00    +0.000 C 
ENDBRANCH   7  11
ENDBRANCH   1   6
BRANCH   2  13
ATOM     13  C   UNL     1       0.613  15.754  53.301  0.00  0.00    +0.000 A 
ATOM     14  C   UNL     1       0.740  17.132  53.432  0.00  0.00    +0.000 A 
ATOM     15  C   UNL     1       0.579  17.898  52.284  0.00  0.00    +0.000 A 
ATOM     16  C   UNL     1      -0.147  17.410  51.206  0.00  0.00    +0.000 A 
ATOM     17  C   UNL     1      -0.662  16.139  51.269  0.00  0.00    +0.000 A 
ATOM     18  C   UNL     1      -0.246  15.331  52.296  0.00  0.00    +0.000 A 
BRANCH  15  19
ATOM     19  O   UNL     1       0.937  19.224  52.368  0.00  0.00    +0.000 OA
ATOM     20  C   UNL     1       1.587  19.824  53.459  0.00  0.00    +0.000 C 
ENDBRANCH  15  19
BRANCH  17  21
ATOM     21  O   UNL     1      -1.837  15.752  50.620  0.00  0.00    +0.000 OA
ATOM     22  C   UNL     1      -2.959  15.346  51.362  0.00  0.00    +0.000 C 
ENDBRANCH  17  21
ENDBRANCH   2  13
TORSDOF 6
ENDMDL
MODEL 2
REMARK VINA RESULT:       0.0     17.137     19.684
REMARK  Name = 
REMARK  6 active torsions:
REMARK  status: ('A' for Active; 'I' for Inactive)
REMARK    1  A    between atoms: O_2  and  C_3
REMARK    2  A    between atoms: C_6  and  C_7
REMARK    3  A    between atoms: C_8  and  C_9
REMARK    4  A    between atoms: C_11  and  O_12
REMARK    5  A    between atoms: C_15  and  O_16
REMARK    6  A    between atoms: C_19  and  O_20
REMARK                            x       y       z     vdW  Elec       q    Type
REMARK                         _______ _______ _______ _____ _____    ______ ____
ROOT
ATOM      1  C   UNL     1      10.132  24.489  69.209  0.00  0.00    +0.000 C 
ATOM      2  C   UNL     1       9.029  25.131  69.524  0.00  0.00    +0.000 C 
ENDROOT
BRANCH   1   6
ATOM      3  C   UNL     1      12.136  21.625  71.418  0.00  0.00    +0.000 A 
ATOM      4  C   UNL     1      10.766  21.488  71.235  0.00  0.00    +0.000 A 
ATOM      5  C   UNL     1      10.059  22.463  70.546  0.00  0.00    +0.000 A 
ATOM      6  C   UNL     1      10.802  23.530  70.058  0.00  0.00    +0.000 A 
ATOM      7  C   UNL     1      11.901  23.901  70.823  0.00  0.00    +0.000 A 
ATOM      8  C   UNL     1      12.734  22.862  71.214  0.00  0.00    +0.000 A 
BRANCH   3  10
ATOM      9  C   UNL     1      12.059  19.566  72.747  0.00  0.00    +0.000 C 
ATOM     10  O   UNL     1      12.781  20.632  72.156  0.00  0.00    +0.000 OA
ENDBRANCH   3  10
BRANCH   7  11
ATOM     11  O   UNL     1      12.389  25.210  70.768  0.00  0.00    +0.000 OA
ATOM     12  C   UNL     1      12.230  26.060  71.903  0.00  0.00    +0.000 C 
ENDBRANCH   7  11
ENDBRANCH   1   6
BRANCH   2  13
ATOM     13  C   UNL     1       8.433  26.019  68.519  0.00  0.00    +0.000 A 
ATOM     14  C   UNL     1       8.902  26.004  67.211  0.00  0.00    +0.000 A 
ATOM     15  C   UNL     1       8.193  26.741  66.271  0.00  0.00    +0.000 A 
ATOM     16  C   UNL     1       7.399  27.810  66.666  0.00  0.00    +0.000 A 
ATOM     17  C   UNL     1       7.284  28.097  68.003  0.00  0.00    +0.000 A 
ATOM     18  C   UNL     1       7.774  27.181  68.898  0.00  0.00    +0.000 A 
BRANCH  15  19
ATOM     19  O   UNL     1       8.515  26.535  64.949  0.00  0.00    +0.000 OA
ATOM     20  C   UNL     1       9.409  25.564  64.471  0.00  0.00    +0.000 C 
ENDBRANCH  15  19
BRANCH  17  21
ATOM     21  O   UNL     1       7.070  29.386  68.498  0.00  0.00    +0.000 OA
ATOM     22  C   UNL     1       8.007  29.981  69.360  0.00  0.00    +0.000 C 
ENDBRANCH  17  21
ENDBRANCH   2  13
TORSDOF 6
ENDMDL
MODEL 3
REMARK VINA RESULT:       0.0      6.575      9.231
REMARK  Name = 
REMARK  6 active torsions:
REMARK  status: ('A' for Active; 'I' for Inactive)
REMARK    1  A    between atoms: O_2  and  C_3
REMARK    2  A    between atoms: C_6  and  C_7
REMARK    3  A    between atoms: C_8  and  C_9
REMARK    4  A    between atoms: C_11  and  O_12
REMARK    5  A    between atoms: C_15  and  O_16
REMARK    6  A    between atoms: C_19  and  O_20
REMARK                            x       y       z     vdW  Elec       q    Type
REMARK                         _______ _______ _______ _____ _____    ______ ____
ROOT
ATOM      1  C   UNL     1      -2.969  21.622  52.450  0.00  0.00    +0.000 C 
ATOM      2  C   UNL     1      -3.950  20.979  53.044  0.00  0.00    +0.000 C 
ENDROOT
BRANCH   1   6
ATOM      3  C   UNL     1       0.996  20.489  52.125  0.00  0.00    +0.000 A 
ATOM      4  C   UNL     1       0.009  19.568  51.796  0.00  0.00    +0.000 A 
ATOM      5  C   UNL     1      -1.330  19.902  51.949  0.00  0.00    +0.000 A 
ATOM      6  C   UNL     1      -1.592  21.182  52.418  0.00  0.00    +0.000 A 
ATOM      7  C   UNL     1      -0.656  21.707  53.301  0.00  0.00    +0.000 A 
ATOM      8  C   UNL     1       0.669  21.592  52.903  0.00  0.00    +0.000 A 
BRANCH   3  10
ATOM      9  C   UNL     1       2.646  18.756  51.595  0.00  0.00    +0.000 C 
ATOM     10  O   UNL     1       2.321  20.077  51.989  0.00  0.00    +0.000 OA
ENDBRANCH   3  10
BRANCH   7  11
ATOM     11  O   UNL     1      -1.031  22.686  54.225  0.00  0.00    +0.000 OA
ATOM     12  C   UNL     1      -1.074  22.353  55.612  0.00  0.00    +0.000 C 
ENDBRANCH   7  11
ENDBRANCH   1   6
BRANCH   2  13
ATOM     13  C   UNL     1      -5.308  21.522  52.921  0.00  0.00    +0.000 A 
ATOM     14  C   UNL     1      -5.567  22.554  52.028  0.00  0.00    +0.000 A 
ATOM     15  C   UNL     1      -6.895  22.912  51.836  0.00  0.00    +0.000 A 
ATOM     16  C   UNL     1      -7.847  22.638  52.809  0.00  0.00    +0.000 A 
ATOM     17  C   UNL     1      -7.467  21.964  53.942  0.00  0.00    +0.000 A 
ATOM     18  C   UNL     1      -6.220  21.395  53.959  0.00  0.00    +0.000 A 
BRANCH  15  19
ATOM     19  O   UNL     1      -7.164  23.760  50.785  0.00  0.00    +0.000 OA
ATOM     20  C   UNL     1      -6.232  24.189  49.827  0.00  0.00    +0.000 C 
ENDBRANCH  15  19
BRANCH  17  21
ATOM     21  O   UNL     1      -8.078  22.144  55.186  0.00  0.00    +0.000 OA
ATOM     22  C   UNL     1      -7.331  22.603  56.285  0.00  0.00    +0.000 C 
ENDBRANCH  17  21
ENDBRANCH   2  13
TORSDOF 6
ENDMDL
MODEL 4
REMARK VINA RESULT:       0.0      8.325     11.351
REMARK  Name = 
REMARK  6 active torsions:
REMARK  status: ('A' for Active; 'I' for Inactive)
REMARK    1  A    between atoms: O_2  and  C_3
REMARK    2  A    between atoms: C_6  and  C_7
REMARK    3  A    between atoms: C_8  and  C_9
REMARK    4  A    between atoms: C_11  and  O_12
REMARK    5  A    between atoms: C_15  and  O_16
REMARK    6  A    between atoms: C_19  and  O_20
REMARK                            x       y       z     vdW  Elec       q    Type
REMARK                         _______ _______ _______ _____ _____    ______ ____
ROOT
ATOM      1  C   UNL     1      -6.116  19.140  60.456  0.00  0.00    +0.000 C 
ATOM      2  C   UNL     1      -4.885  18.729  60.247  0.00  0.00    +0.000 C 
ENDROOT
BRANCH   1   6
ATOM      3  C   UNL     1      -7.460  23.019  60.958  0.00  0.00    +0.000 A 
ATOM      4  C   UNL     1      -6.630  22.734  59.881  0.00  0.00    +0.000 A 
ATOM      5  C   UNL     1      -6.119  21.454  59.720  0.00  0.00    +0.000 A 
ATOM      6  C   UNL     1      -6.503  20.516  60.669  0.00  0.00    +0.000 A 
ATOM      7  C   UNL     1      -6.714  21.006  61.952  0.00  0.00    +0.000 A 
ATOM      8  C   UNL     1      -7.510  22.141  62.034  0.00  0.00    +0.000 A 
BRANCH   3  10
ATOM      9  C   UNL     1      -7.478  25.349  60.196  0.00  0.00    +0.000 C 
ATOM     10  O   UNL     1      -7.906  24.335  61.087  0.00  0.00    +0.000 OA
ENDBRANCH   3  10
BRANCH   7  11
ATOM     11  O   UNL     1      -6.573  20.166  63.060  0.00  0.00    +0.000 OA
ATOM     12  C   UNL     1      -5.477  20.368  63.950  0.00  0.00    +0.000 C 
ENDBRANCH   7  11
ENDBRANCH   1   6
BRANCH   2  13
ATOM     13  C   UNL     1      -4.668  17.303  59.974  0.00  0.00    +0.000 A 
ATOM     14  C   UNL     1      -5.752  16.468  59.732  0.00  0.00    +0.000 A 
ATOM     15  C   UNL     1      -5.476  15.171  59.318  0.00  0.00    +0.000 A 
ATOM     16  C   UNL     1      -4.252  14.583  59.609  0.00  0.00    +0.000 A 
ATOM     17  C   UNL     1      -3.298  15.318  60.267  0.00  0.00    +0.000 A 
ATOM     18  C   UNL     1      -3.513  16.665  60.406  0.00  0.00    +0.000 A 
BRANCH  15  19
ATOM     19  O   UNL     1      -6.538  14.429  58.853  0.00  0.00    +0.000 OA
ATOM     20  C   UNL     1      -7.840  14.911  58.649  0.00  0.00    +0.000 C 
ENDBRANCH  15  19
BRANCH  17  21
ATOM     21  O   UNL     1      -2.348  14.756  61.123  0.00  0.00    +0.000 OA
ATOM     22  C   UNL     1      -2.296  15.136  62.475  0.00  0.00    +0.000 C 
ENDBRANCH  17  21
ENDBRANCH   2  13
TORSDOF 6
ENDMDL
MODEL 5
REMARK VINA RESULT:       0.0     19.285     21.295
REMARK  Name = 
REMARK  6 active torsions:
REMARK  status: ('A' for Active; 'I' for Inactive)
REMARK    1  A    between atoms: O_2  and  C_3
REMARK    2  A    between atoms: C_6  and  C_7
REMARK    3  A    between atoms: C_8  and  C_9
REMARK    4  A    between atoms: C_11  and  O_12
REMARK    5  A    between atoms: C_15  and  O_16
REMARK    6  A    between atoms: C_19  and  O_20
REMARK                            x       y       z     vdW  Elec       q    Type
REMARK                         _______ _______ _______ _____ _____    ______ ____
ROOT
ATOM      1  C   UNL     1      19.310  23.239  57.016  0.00  0.00    +0.000 C 
ATOM      2  C   UNL     1      19.322  23.441  55.717  0.00  0.00    +0.000 C 
ENDROOT
BRANCH   1   6
ATOM      3  C   UNL     1      17.161  25.286  59.896  0.00  0.00    +0.000 A 
ATOM      4  C   UNL     1      16.495  24.823  58.769  0.00  0.00    +0.000 A 
ATOM      5  C   UNL     1      17.200  24.183  57.760  0.00  0.00    +0.000 A 
ATOM      6  C   UNL     1      18.565  24.030  57.969  0.00  0.00    +0.000 A 
ATOM      7  C   UNL     1      19.183  25.042  58.693  0.00  0.00    +0.000 A 
ATOM      8  C   UNL     1      18.545  25.408  59.871  0.00  0.00    +0.000 A 
BRANCH   3  10
ATOM      9  C   UNL     1      15.023  26.212  60.654  0.00  0.00    +0.000 C 
ATOM     10  O   UNL     1      16.401  25.958  60.854  0.00  0.00    +0.000 OA
ENDBRANCH   3  10
BRANCH   7  11
ATOM     11  O   UNL     1      20.547  25.299  58.523  0.00  0.00    +0.000 OA
ATOM     12  C   UNL     1      20.952  26.507  57.883  0.00  0.00    +0.000 C 
ENDBRANCH   7  11
ENDBRANCH   1   6
BRANCH   2  13
ATOM     13  C   UNL     1      20.074  22.501  54.877  0.00  0.00    +0.000 A 
ATOM     14  C   UNL     1      20.569  21.323  55.422  0.00  0.00    +0.000 A 
ATOM     15  C   UNL     1      21.125  20.400  54.545  0.00  0.00    +0.000 A 
ATOM     16  C   UNL     1      21.621  20.808  53.313  0.00  0.00    +0.000 A 
ATOM     17  C   UNL     1      21.509  22.127  52.953  0.00  0.00    +0.000 A 
ATOM     18  C   UNL     1      20.713  22.934  53.723  0.00  0.00    +0.000 A 
BRANCH  15  19
ATOM     19  O   UNL     1      21.393  19.148  55.049  0.00  0.00    +0.000 OA
ATOM     20  C   UNL     1      21.041  18.694  56.330  0.00  0.00    +0.000 C 
ENDBRANCH  15  19
BRANCH  17  21
ATOM     21  O   UNL     1      22.424  22.778  52.122  0.00  0.00    +0.000 OA
ATOM     22  C   UNL     1      23.143  23.891  52.590  0.00  0.00    +0.000 C 
ENDBRANCH  17  21
ENDBRANCH   2  13
TORSDOF 6
ENDMDL
MODEL 6
REMARK VINA RESULT:       0.0     16.979     20.618
REMARK  Name = 
REMARK  6 active torsions:
REMARK  status: ('A' for Active; 'I' for Inactive)
REMARK    1  A    between atoms: O_2  and  C_3
REMARK    2  A    between atoms: C_6  and  C_7
REMARK    3  A    between atoms: C_8  and  C_9
REMARK    4  A    between atoms: C_11  and  O_12
REMARK    5  A    between atoms: C_15  and  O_16
REMARK    6  A    between atoms: C_19  and  O_20
REMARK                            x       y       z     vdW  Elec       q    Type
REMARK                         _______ _______ _______ _____ _____    ______ ____
ROOT
ATOM      1  C   UNL     1      13.950  21.518  68.685  0.00  0.00    +0.000 C 
ATOM      2  C   UNL     1      15.241  21.332  68.519  0.00  0.00    +0.000 C 
ENDROOT
BRANCH   1   6
ATOM      3  C   UNL     1      10.985  18.657  69.040  0.00  0.00    +0.000 A 
ATOM      4  C   UNL     1      12.125  18.537  69.823  0.00  0.00    +0.000 A 
ATOM      5  C   UNL     1      13.161  19.451  69.685  0.00  0.00    +0.000 A 
ATOM      6  C   UNL     1      12.965  20.463  68.754  0.00  0.00    +0.000 A 
ATOM      7  C   UNL     1      12.206  20.122  67.641  0.00  0.00    +0.000 A 
ATOM      8  C   UNL     1      11.012  19.466  67.911  0.00  0.00    +0.000 A 
BRANCH   3  10
ATOM      9  C   UNL     1      10.183  16.584  70.072  0.00  0.00    +0.000 C 
ATOM     10  O   UNL     1       9.999  17.683  69.198  0.00  0.00    +0.000 OA
ENDBRANCH   3  10
BRANCH   7  11
ATOM     11  O   UNL     1      12.372  20.811  66.436  0.00  0.00    +0.000 OA
ATOM     12  C   UNL     1      12.969  20.140  65.328  0.00  0.00    +0.000 C 
ENDBRANCH   7  11
ENDBRANCH   1   6
BRANCH   2  13
ATOM     13  C   UNL     1      16.119  22.508  68.544  0.00  0.00    +0.000 A 
ATOM     14  C   UNL     1      15.620  23.741  68.945  0.00  0.00    +0.000 A 
ATOM     15  C   UNL     1      16.533  24.776  69.106  0.00  0.00    +0.000 A 
ATOM     16  C   UNL     1      17.752  24.751  68.441  0.00  0.00    +0.000 A 
ATOM     17  C   UNL     1      18.064  23.665  67.662  0.00  0.00    +0.000 A 
ATOM     18  C   UNL     1      17.260  22.559  67.755  0.00  0.00    +0.000 A 
BRANCH  15  19
ATOM     19  O   UNL     1      16.075  25.916  69.727  0.00  0.00    +0.000 OA
ATOM     20  C   UNL     1      14.810  26.070  70.315  0.00  0.00    +0.000 C 
ENDBRANCH  15  19
BRANCH  17  21
ATOM     21  O   UNL     1      18.877  23.741  66.528  0.00  0.00    +0.000 OA
ATOM     22  C   UNL     1      18.375  23.373  65.268  0.00  0.00    +0.000 C 
ENDBRANCH  17  21
ENDBRANCH   2  13
TORSDOF 6
ENDMDL
MODEL 7
REMARK VINA RESULT:       0.0     17.903     21.091
REMARK  Name = 
REMARK  6 active torsions:
REMARK  status: ('A' for Active; 'I' for Inactive)
REMARK    1  A    between atoms: O_2  and  C_3
REMARK    2  A    between atoms: C_6  and  C_7
REMARK    3  A    between atoms: C_8  and  C_9
REMARK    4  A    between atoms: C_11  and  O_12
REMARK    5  A    between atoms: C_15  and  O_16
REMARK    6  A    between atoms: C_19  and  O_20
REMARK                            x       y       z     vdW  Elec       q    Type
REMARK                         _______ _______ _______ _____ _____    ______ ____
ROOT
ATOM      1  C   UNL     1      13.496   8.626  69.639  0.00  0.00    +0.000 C 
ATOM      2  C   UNL     1      13.130   9.569  70.479  0.00  0.00    +0.000 C 
ENDROOT
BRANCH   1   6
ATOM      3  C   UNL     1      16.814   8.553  67.172  0.00  0.00    +0.000 A 
ATOM      4  C   UNL     1      16.986   8.872  68.512  0.00  0.00    +0.000 A 
ATOM      5  C   UNL     1      15.884   8.959  69.351  0.00  0.00    +0.000 A 
ATOM      6  C   UNL     1      14.650   8.693  68.772  0.00  0.00    +0.000 A 
ATOM      7  C   UNL     1      14.518   9.056  67.437  0.00  0.00    +0.000 A 
ATOM      8  C   UNL     1      15.550   8.647  66.603  0.00  0.00    +0.000 A 
BRANCH   3  10
ATOM      9  C   UNL     1      19.228   8.868  66.893  0.00  0.00    +0.000 C 
ATOM     10  O   UNL     1      17.957   8.523  66.373  0.00  0.00    +0.000 OA
ENDBRANCH   3  10
BRANCH   7  11
ATOM     11  O   UNL     1      13.257   9.345  66.906  0.00  0.00    +0.000 OA
ATOM     12  C   UNL     1      12.946  10.690  66.547  0.00  0.00    +0.000 C 
ENDBRANCH   7  11
ENDBRANCH   1   6
BRANCH   2  13
ATOM     13  C   UNL     1      11.973   9.314  71.345  0.00  0.00    +0.000 A 
ATOM     14  C   UNL     1      11.425   8.039  71.419  0.00  0.00    +0.000 A 
ATOM     15  C   UNL     1      10.441   7.823  72.375  0.00  0.00    +0.000 A 
ATOM     16  C   UNL     1       9.692   8.884  72.869  0.00  0.00    +0.000 A 
ATOM     17  C   UNL     1       9.972  10.156  72.437  0.00  0.00    +0.000 A 
ATOM     18  C   UNL     1      11.121  10.347  71.714  0.00  0.00    +0.000 A 
BRANCH  15  19
ATOM     19  O   UNL     1      10.075   6.516  72.605  0.00  0.00    +0.000 OA
ATOM     20  C   UNL     1      10.696   5.388  72.047  0.00  0.00    +0.000 C 
ENDBRANCH  15  19
BRANCH  17  21
ATOM     21  O   UNL     1       9.011  11.165  72.342  0.00  0.00    +0.000 OA
ATOM     22  C   UNL     1       8.734  11.769  71.103  0.00  0.00    +0.000 C 
ENDBRANCH  17  21
ENDBRANCH   2  13
TORSDOF 6
ENDMDL
MODEL 8
REMARK VINA RESULT:       0.0     12.714     17.424
REMARK  Name = 
REMARK  6 active torsions:
REMARK  status: ('A' for Active; 'I' for Inactive)
REMARK    1  A    between atoms: O_2  and  C_3
REMARK    2  A    between atoms: C_6  and  C_7
REMARK    3  A    between atoms: C_8  and  C_9
REMARK    4  A    between atoms: C_11  and  O_12
REMARK    5  A    between atoms: C_15  and  O_16
REMARK    6  A    between atoms: C_19  and  O_20
REMARK                            x       y       z     vdW  Elec       q    Type
REMARK                         _______ _______ _______ _____ _____    ______ ____
ROOT
ATOM      1  C   UNL     1       8.997  14.596  68.289  0.00  0.00    +0.000 C 
ATOM      2  C   UNL     1       9.372  14.485  69.544  0.00  0.00    +0.000 C 
ENDROOT
BRANCH   1   6
ATOM      3  C   UNL     1       5.433  16.088  66.814  0.00  0.00    +0.000 A 
ATOM      4  C   UNL     1       6.128  16.832  67.759  0.00  0.00    +0.000 A 
ATOM      5  C   UNL     1       7.298  16.330  68.312  0.00  0.00    +0.000 A 
ATOM      6  C   UNL     1       7.710  15.087  67.851  0.00  0.00    +0.000 A 
ATOM      7  C   UNL     1       6.696  14.208  67.494  0.00  0.00    +0.000 A 
ATOM      8  C   UNL     1       5.711  14.735  66.669  0.00  0.00    +0.000 A 
BRANCH   3  10
ATOM      9  C   UNL     1       3.735  17.856  66.823  0.00  0.00    +0.000 C 
ATOM     10  O   UNL     1       4.243  16.630  66.327  0.00  0.00    +0.000 OA
ENDBRANCH   3  10
BRANCH   7  11
ATOM     11  O   UNL     1       6.912  12.827  67.536  0.00  0.00    +0.000 OA
ATOM     12  C   UNL     1       6.244  12.048  68.527  0.00  0.00    +0.000 C 
ENDBRANCH   7  11
ENDBRANCH   1   6
BRANCH   2  13
ATOM     13  C   UNL     1      10.742  14.037  69.820  0.00  0.00    +0.000 A 
ATOM     14  C   UNL     1      11.667  13.947  68.787  0.00  0.00    +0.000 A 
ATOM     15  C   UNL     1      12.985  13.678  69.133  0.00  0.00    +0.000 A 
ATOM     16  C   UNL     1      13.284  13.045  70.333  0.00  0.00    +0.000 A 
ATOM     17  C   UNL     1      12.263  12.733  71.195  0.00  0.00    +0.000 A 
ATOM     18  C   UNL     1      11.025  13.262  70.937  0.00  0.00    +0.000 A 
BRANCH  15  19
ATOM     19  O   UNL     1      13.930  13.825  68.143  0.00  0.00    +0.000 OA
ATOM     20  C   UNL     1      13.689  14.339  66.859  0.00  0.00    +0.000 C 
ENDBRANCH  15  19
BRANCH  17  21
ATOM     21  O   UNL     1      12.295  11.638  72.062  0.00  0.00    +0.000 OA
ATOM     22  C   UNL     1      11.324  10.626  71.966  0.00  0.00    +0.000 C 
ENDBRANCH  17  21
ENDBRANCH   2  13
TORSDOF 6
ENDMDL
MODEL 9
REMARK VINA RESULT:       0.0     15.665     17.067
REMARK  Name = 
REMARK  6 active torsions:
REMARK  status: ('A' for Active; 'I' for Inactive)
REMARK    1  A    between atoms: O_2  and  C_3
REMARK    2  A    between atoms: C_6  and  C_7
REMARK    3  A    between atoms: C_8  and  C_9
REMARK    4  A    between atoms: C_11  and  O_12
REMARK    5  A    between atoms: C_15  and  O_16
REMARK    6  A    between atoms: C_19  and  O_20
REMARK                            x       y       z     vdW  Elec       q    Type
REMARK                         _______ _______ _______ _____ _____    ______ ____
ROOT
ATOM      1  C   UNL     1      13.024  11.470  45.885  0.00  0.00    +0.000 C 
ATOM      2  C   UNL     1      13.493  12.436  45.126  0.00  0.00    +0.000 C 
ENDROOT
BRANCH   1   6
ATOM      3  C   UNL     1       9.090  10.295  46.380  0.00  0.00    +0.000 A 
ATOM      4  C   UNL     1       9.582  10.455  45.091  0.00  0.00    +0.000 A 
ATOM      5  C   UNL     1      10.881  10.903  44.895  0.00  0.00    +0.000 A 
ATOM      6  C   UNL     1      11.624  11.147  46.042  0.00  0.00    +0.000 A 
ATOM      7  C   UNL     1      10.908  11.603  47.142  0.00  0.00    +0.000 A 
ATOM      8  C   UNL     1       9.759  10.883  47.445  0.00  0.00    +0.000 A 
BRANCH   3  10
ATOM      9  C   UNL     1       6.936   9.699  45.374  0.00  0.00    +0.000 C 
ATOM     10  O   UNL     1       7.764   9.883  46.509  0.00  0.00    +0.000 OA
ENDBRANCH   3  10
BRANCH   7  11
ATOM     11  O   UNL     1      11.538  12.369  48.127  0.00  0.00    +0.000 OA
ATOM     12  C   UNL     1      11.204  13.750  48.254  0.00  0.00    +0.000 C 
ENDBRANCH   7  11
ENDBRANCH   1   6
BRANCH   2  13
ATOM     13  C   UNL     1      14.949  12.587  45.017  0.00  0.00    +0.000 A 
ATOM     14  C   UNL     1      15.791  11.606  45.527  0.00  0.00    +0.000 A 
ATOM     15  C   UNL     1      17.146  11.722  45.249  0.00  0.00    +0.000 A 
ATOM     16  C   UNL     1      17.699  12.958  44.937  0.00  0.00    +0.000 A 
ATOM     17  C   UNL     1      16.878  14.055  44.858  0.00  0.00    +0.000 A 
ATOM     18  C   UNL     1      15.523  13.841  44.867  0.00  0.00    +0.000 A 
BRANCH  15  19
ATOM     19  O   UNL     1      17.937  10.636  45.548  0.00  0.00    +0.000 OA
ATOM     20  C   UNL     1      17.471   9.389  45.991  0.00  0.00    +0.000 C 
ENDBRANCH  15  19
BRANCH  17  21
ATOM     21  O   UNL     1      17.298  15.353  45.158  0.00  0.00    +0.000 OA
ATOM     22  C   UNL     1      16.680  16.080  46.191  0.00  0.00    +0.000 C 
ENDBRANCH  17  21
ENDBRANCH   2  13
TORSDOF 6
ENDMDL
MODEL 10
REMARK VINA RESULT:       0.0     18.919     22.199
REMARK  Name = 
REMARK  6 active torsions:
REMARK  status: ('A' for Active; 'I' for Inactive)
REMARK    1  A    between atoms: O_2  and  C_3
REMARK    2  A    between atoms: C_6  and  C_7
REMARK    3  A    between atoms: C_8  and  C_9
REMARK    4  A    between atoms: C_11  and  O_12
REMARK    5  A    between atoms: C_15  and  O_16
REMARK    6  A    between atoms: C_19  and  O_20
REMARK                            x       y       z     vdW  Elec       q    Type
REMARK                         _______ _______ _______ _____ _____    ______ ____
ROOT
ATOM      1  C   UNL     1       2.739  23.226  74.994  0.00  0.00    +0.000 C 
ATOM      2  C   UNL     1       2.294  24.390  74.574  0.00  0.00    +0.000 C 
ENDROOT
BRANCH   1   6
ATOM      3  C   UNL     1       3.960  19.993  72.722  0.00  0.00    +0.000 A 
ATOM      4  C   UNL     1       4.468  21.250  72.421  0.00  0.00    +0.000 A 
ATOM      5  C   UNL     1       4.034  22.361  73.130  0.00  0.00    +0.000 A 
ATOM      6  C   UNL     1       3.105  22.123  74.135  0.00  0.00    +0.000 A 
ATOM      7  C   UNL     1       2.222  21.075  73.906  0.00  0.00    +0.000 A 
ATOM      8  C   UNL     1       2.802  19.887  73.482  0.00  0.00    +0.000 A 
BRANCH   3  10
ATOM      9  C   UNL     1       5.288  19.122  70.855  0.00  0.00    +0.000 C 
ATOM     10  O   UNL     1       4.406  18.923  71.945  0.00  0.00    +0.000 OA
ENDBRANCH   3  10
BRANCH   7  11
ATOM     11  O   UNL     1       0.966  21.064  74.520  0.00  0.00    +0.000 OA
ATOM     12  C   UNL     1      -0.200  21.259  73.723  0.00  0.00    +0.000 C 
ENDBRANCH   7  11
ENDBRANCH   1   6
BRANCH   2  13
ATOM     13  C   UNL     1       2.037  25.434  75.574  0.00  0.00    +0.000 A 
ATOM     14  C   UNL     1       2.456  25.259  76.887  0.00  0.00    +0.000 A 
ATOM     15  C   UNL     1       2.333  26.345  77.744  0.00  0.00    +0.000 A 
ATOM     16  C   UNL     1       1.409  27.349  77.483  0.00  0.00    +0.000 A 
ATOM     17  C   UNL     1       0.655  27.279  76.339  0.00  0.00    +0.000 A 
ATOM     18  C   UNL     1       1.006  26.346  75.398  0.00  0.00    +0.000 A 
BRANCH  15  19
ATOM     19  O   UNL     1       2.962  26.247  78.965  0.00  0.00    +0.000 OA
ATOM     20  C   UNL     1       3.812  25.202  79.360  0.00  0.00    +0.000 C 
ENDBRANCH  15  19
BRANCH  17  21
ATOM     21  O   UNL     1      -0.638  27.800  76.237  0.00  0.00    +0.000 OA
ATOM     22  C   UNL     1      -1.722  26.957  75.936  0.00  0.00    +0.000 C 
ENDBRANCH  17  21
ENDBRANCH   2  13
TORSDOF 6
ENDMDL
