REMARK  Name = 
REMARK  8 active torsions:
REMARK  status: ('A' for Active; 'I' for Inactive)
REMARK    1  A    between atoms: C_2  and  O_4
REMARK    2  A    between atoms: O_4  and  C_5
REMARK    3  A    between atoms: C_8  and  C_9
REMARK    4  A    between atoms: C_10  and  C_11
REMARK    5  A    between atoms: C_13  and  O_14
REMARK    6  A    between atoms: O_14  and  C_15
REMARK    7  A    between atoms: C_19  and  O_20
REMARK    8  A    between atoms: O_20  and  C_21
REMARK                            x       y       z     vdW  Elec       q    Type
REMARK                         _______ _______ _______ _____ _____    ______ ____
ROOT
ATOM      1  C   UNL     1      -1.411   0.004   0.370  0.00  0.00    +0.000 A 
ATOM      2  C   UNL     1      -2.400   0.971   0.372  0.00  0.00    +0.000 A 
ATOM      3  C   UNL     1      -3.724   0.614   0.151  0.00  0.00    +0.000 A 
ATOM      4  C   UNL     1      -4.040  -0.643  -0.349  0.00  0.00    +0.000 A 
ATOM      5  C   UNL     1      -3.053  -1.607  -0.411  0.00  0.00    +0.000 A 
ATOM      6  C   UNL     1      -1.740  -1.195  -0.243  0.00  0.00    +0.000 A 
ENDROOT
BRANCH   1   8
ATOM      7  C   UNL     1       0.863  -0.561   1.015  0.00  0.00    +0.000 C 
ATOM      8  C   UNL     1      -0.047   0.365   0.736  0.00  0.00    +0.000 C 
BRANCH   7  12
ATOM      9  C   UNL     1       4.841   0.503   0.033  0.00  0.00    +0.000 A 
ATOM     10  C   UNL     1       4.606  -0.305   1.139  0.00  0.00    +0.000 A 
ATOM     11  C   UNL     1       3.313  -0.678   1.488  0.00  0.00    +0.000 A 
ATOM     12  C   UNL     1       2.261  -0.449   0.611  0.00  0.00    +0.000 A 
ATOM     13  C   UNL     1       2.638  -0.190  -0.702  0.00  0.00    +0.000 A 
ATOM     14  C   UNL     1       3.774   0.596  -0.853  0.00  0.00    +0.000 A 
BRANCH   9  15
ATOM     15  O   UNL     1       5.718   1.590   0.097  0.00  0.00    +0.000 OA
BRANCH  15  17
ATOM     16  C   UNL     1       7.990   2.543  -0.136  0.00  0.00    +0.000 C 
ATOM     17  C   UNL     1       7.076   1.465   0.285  0.00  0.00    +0.000 C 
ATOM     18  O   UNL     1       7.547   0.328   0.496  0.00  0.00    +0.000 OA
ENDBRANCH  15  17
ENDBRANCH   9  15
ENDBRANCH   7  12
ENDBRANCH   1   8
BRANCH   3  19
ATOM     19  O   UNL     1      -4.774   1.466   0.469  0.00  0.00    +0.000 OA
BRANCH  19  20
ATOM     20  C   UNL     1      -4.591   2.836   0.650  0.00  0.00    +0.000 C 
ATOM     21  C   UNL     1      -5.594   3.835   0.177  0.00  0.00    +0.000 C 
ATOM     22  O   UNL     1      -3.481   3.182   1.118  0.00  0.00    +0.000 OA
ENDBRANCH  19  20
ENDBRANCH   3  19
BRANCH   5  23
ATOM     23  O   UNL     1      -3.377  -2.961  -0.295  0.00  0.00    +0.000 OA
BRANCH  23  24
ATOM     24  C   UNL     1      -3.868  -3.673  -1.393  0.00  0.00    +0.000 C 
ATOM     25  C   UNL     1      -4.730  -4.863  -1.228  0.00  0.00    +0.000 C 
ATOM     26  O   UNL     1      -3.798  -3.174  -2.553  0.00  0.00    +0.000 OA
ENDBRANCH  23  24
ENDBRANCH   5  23
TORSDOF 8
