MODEL 1
REMARK VINA RESULT:      -0.0      0.000      0.000
REMARK  Name = 
REMARK  8 active torsions:
REMARK  status: ('A' for Active; 'I' for Inactive)
REMARK    1  A    between atoms: C_2  and  O_4
REMARK    2  A    between atoms: O_4  and  C_5
REMARK    3  A    between atoms: C_8  and  C_9
REMARK    4  A    between atoms: C_10  and  C_11
REMARK    5  A    between atoms: C_13  and  O_14
REMARK    6  A    between atoms: O_14  and  C_15
REMARK    7  A    between atoms: C_19  and  O_20
REMARK    8  A    between atoms: O_20  and  C_21
REMARK                            x       y       z     vdW  Elec       q    Type
REMARK                         _______ _______ _______ _____ _____    ______ ____
ROOT
ATOM      1  C   UNL     1     -10.645  27.691  66.860  0.00  0.00    +0.000 A 
ATOM      2  C   UNL     1     -10.548  26.392  67.323  0.00  0.00    +0.000 A 
ATOM      3  C   UNL     1      -9.742  26.100  68.416  0.00  0.00    +0.000 A 
ATOM      4  C   UNL     1      -8.816  27.028  68.875  0.00  0.00    +0.000 A 
ATOM      5  C   UNL     1      -8.860  28.318  68.384  0.00  0.00    +0.000 A 
ATOM      6  C   UNL     1      -9.632  28.551  67.256  0.00  0.00    +0.000 A 
ENDROOT
BRANCH   1   8
ATOM      7  C   UNL     1     -11.985  27.098  64.921  0.00  0.00    +0.000 C 
ATOM      8  C   UNL     1     -11.595  28.012  65.802  0.00  0.00    +0.000 C 
BRANCH   7  12
ATOM      9  C   UNL     1     -16.070  26.375  64.075  0.00  0.00    +0.000 A 
ATOM     10  C   UNL     1     -15.677  27.637  64.507  0.00  0.00    +0.000 A 
ATOM     11  C   UNL     1     -14.344  27.911  64.789  0.00  0.00    +0.000 A 
ATOM     12  C   UNL     1     -13.354  27.009  64.422  0.00  0.00    +0.000 A 
ATOM     13  C   UNL     1     -13.742  26.065  63.478  0.00  0.00    +0.000 A 
ATOM     14  C   UNL     1     -15.031  25.569  63.624  0.00  0.00    +0.000 A 
BRANCH   9  15
ATOM     15  O   UNL     1     -17.190  25.736  64.614  0.00  0.00    +0.000 OA
BRANCH  15  17
ATOM     16  C   UNL     1     -16.718  24.965  66.918  0.00  0.00    +0.000 C 
ATOM     17  C   UNL     1     -17.508  25.753  65.954  0.00  0.00    +0.000 C 
ATOM     18  O   UNL     1     -18.640  26.156  66.293  0.00  0.00    +0.000 OA
ENDBRANCH  15  17
ENDBRANCH   9  15
ENDBRANCH   7  12
ENDBRANCH   1   8
BRANCH   3  19
ATOM     19  O   UNL     1      -9.865  24.908  69.118  0.00  0.00    +0.000 OA
BRANCH  19  20
ATOM     20  C   UNL     1     -11.035  24.559  69.792  0.00  0.00    +0.000 C 
ATOM     21  C   UNL     1     -11.656  25.457  70.809  0.00  0.00    +0.000 C 
ATOM     22  O   UNL     1     -11.460  23.399  69.584  0.00  0.00    +0.000 OA
ENDBRANCH  19  20
ENDBRANCH   3  19
BRANCH   5  23
ATOM     23  O   UNL     1      -8.442  29.392  69.174  0.00  0.00    +0.000 OA
BRANCH  23  24
ATOM     24  C   UNL     1      -9.369  30.304  69.685  0.00  0.00    +0.000 C 
ATOM     25  C   UNL     1     -10.394  29.903  70.673  0.00  0.00    +0.000 C 
ATOM     26  O   UNL     1      -9.199  31.545  69.510  0.00  0.00    +0.000 OA
ENDBRANCH  23  24
ENDBRANCH   5  23
TORSDOF 8
ENDMDL
MODEL 2
REMARK VINA RESULT:      -0.0      7.240      9.750
REMARK  Name = 
REMARK  8 active torsions:
REMARK  status: ('A' for Active; 'I' for Inactive)
REMARK    1  A    between atoms: C_2  and  O_4
REMARK    2  A    between atoms: O_4  and  C_5
REMARK    3  A    between atoms: C_8  and  C_9
REMARK    4  A    between atoms: C_10  and  C_11
REMARK    5  A    between atoms: C_13  and  O_14
REMARK    6  A    between atoms: O_14  and  C_15
REMARK    7  A    between atoms: C_19  and  O_20
REMARK    8  A    between atoms: O_20  and  C_21
REMARK                            x       y       z     vdW  Elec       q    Type
REMARK                         _______ _______ _______ _____ _____    ______ ____
ROOT
ATOM      1  C   UNL     1      -9.927  20.853  69.489  0.00  0.00    +0.000 A 
ATOM      2  C   UNL     1      -9.223  22.033  69.327  0.00  0.00    +0.000 A 
ATOM      3  C   UNL     1      -8.993  22.862  70.417  0.00  0.00    +0.000 A 
ATOM      4  C   UNL     1      -9.691  22.674  71.604  0.00  0.00    +0.000 A 
ATOM      5  C   UNL     1     -10.444  21.528  71.764  0.00  0.00    +0.000 A 
ATOM      6  C   UNL     1     -10.698  20.763  70.637  0.00  0.00    +0.000 A 
ENDROOT
BRANCH   1   8
ATOM      7  C   UNL     1      -9.984  20.345  67.113  0.00  0.00    +0.000 C 
ATOM      8  C   UNL     1     -10.047  19.925  68.371  0.00  0.00    +0.000 C 
BRANCH   7  12
ATOM      9  C   UNL     1      -7.423  18.556  64.256  0.00  0.00    +0.000 A 
ATOM     10  C   UNL     1      -7.889  17.796  65.322  0.00  0.00    +0.000 A 
ATOM     11  C   UNL     1      -8.735  18.350  66.276  0.00  0.00    +0.000 A 
ATOM     12  C   UNL     1      -9.316  19.592  66.056  0.00  0.00    +0.000 A 
ATOM     13  C   UNL     1      -9.290  20.026  64.735  0.00  0.00    +0.000 A 
ATOM     14  C   UNL     1      -8.126  19.735  64.034  0.00  0.00    +0.000 A 
BRANCH   9  15
ATOM     15  O   UNL     1      -6.078  18.530  63.874  0.00  0.00    +0.000 OA
BRANCH  15  17
ATOM     16  C   UNL     1      -4.687  19.729  65.531  0.00  0.00    +0.000 C 
ATOM     17  C   UNL     1      -5.031  18.516  64.767  0.00  0.00    +0.000 C 
ATOM     18  O   UNL     1      -4.186  17.601  64.682  0.00  0.00    +0.000 OA
ENDBRANCH  15  17
ENDBRANCH   9  15
ENDBRANCH   7  12
ENDBRANCH   1   8
BRANCH   3  19
ATOM     19  O   UNL     1      -8.029  23.862  70.385  0.00  0.00    +0.000 OA
BRANCH  19  20
ATOM     20  C   UNL     1      -6.674  23.583  70.214  0.00  0.00    +0.000 C 
ATOM     21  C   UNL     1      -5.946  22.631  71.103  0.00  0.00    +0.000 C 
ATOM     22  O   UNL     1      -6.079  24.273  69.352  0.00  0.00    +0.000 OA
ENDBRANCH  19  20
ENDBRANCH   3  19
BRANCH   5  23
ATOM     23  O   UNL     1     -10.640  20.981  73.034  0.00  0.00    +0.000 OA
BRANCH  23  24
ATOM     24  C   UNL     1     -10.020  19.781  73.397  0.00  0.00    +0.000 C 
ATOM     25  C   UNL     1      -8.551  19.668  73.513  0.00  0.00    +0.000 C 
ATOM     26  O   UNL     1     -10.707  18.835  73.879  0.00  0.00    +0.000 OA
ENDBRANCH  23  24
ENDBRANCH   5  23
TORSDOF 8
ENDMDL
MODEL 3
REMARK VINA RESULT:      -0.0     26.564     29.997
REMARK  Name = 
REMARK  8 active torsions:
REMARK  status: ('A' for Active; 'I' for Inactive)
REMARK    1  A    between atoms: C_2  and  O_4
REMARK    2  A    between atoms: O_4  and  C_5
REMARK    3  A    between atoms: C_8  and  C_9
REMARK    4  A    between atoms: C_10  and  C_11
REMARK    5  A    between atoms: C_13  and  O_14
REMARK    6  A    between atoms: O_14  and  C_15
REMARK    7  A    between atoms: C_19  and  O_20
REMARK    8  A    between atoms: O_20  and  C_21
REMARK                            x       y       z     vdW  Elec       q    Type
REMARK                         _______ _______ _______ _____ _____    ______ ____
ROOT
ATOM      1  C   UNL     1      13.118  11.927  62.142  0.00  0.00    +0.000 A 
ATOM      2  C   UNL     1      13.098  13.246  61.726  0.00  0.00    +0.000 A 
ATOM      3  C   UNL     1      12.322  13.621  60.637  0.00  0.00    +0.000 A 
ATOM      4  C   UNL     1      11.790  12.660  59.787  0.00  0.00    +0.000 A 
ATOM      5  C   UNL     1      11.849  11.331  60.159  0.00  0.00    +0.000 A 
ATOM      6  C   UNL     1      12.682  10.994  61.214  0.00  0.00    +0.000 A 
ENDROOT
BRANCH   1   8
ATOM      7  C   UNL     1      14.849  12.285  63.810  0.00  0.00    +0.000 C 
ATOM      8  C   UNL     1      13.826  11.566  63.364  0.00  0.00    +0.000 C 
BRANCH   7  12
ATOM      9  C   UNL     1      15.073  13.665  67.806  0.00  0.00    +0.000 A 
ATOM     10  C   UNL     1      14.361  12.505  67.526  0.00  0.00    +0.000 A 
ATOM     11  C   UNL     1      14.270  12.020  66.226  0.00  0.00    +0.000 A 
ATOM     12  C   UNL     1      15.078  12.548  65.228  0.00  0.00    +0.000 A 
ATOM     13  C   UNL     1      16.173  13.275  65.682  0.00  0.00    +0.000 A 
ATOM     14  C   UNL     1      15.940  14.070  66.798  0.00  0.00    +0.000 A 
BRANCH   9  15
ATOM     15  O   UNL     1      14.550  14.659  68.639  0.00  0.00    +0.000 OA
BRANCH  15  17
ATOM     16  C   UNL     1      12.727  15.876  67.491  0.00  0.00    +0.000 C 
ATOM     17  C   UNL     1      13.234  15.063  68.612  0.00  0.00    +0.000 C 
ATOM     18  O   UNL     1      12.577  15.028  69.673  0.00  0.00    +0.000 OA
ENDBRANCH  15  17
ENDBRANCH   9  15
ENDBRANCH   7  12
ENDBRANCH   1   8
BRANCH   3  19
ATOM     19  O   UNL     1      12.004  14.951  60.389  0.00  0.00    +0.000 OA
BRANCH  19  20
ATOM     20  C   UNL     1      11.256  15.716  61.282  0.00  0.00    +0.000 C 
ATOM     21  C   UNL     1       9.915  15.275  61.766  0.00  0.00    +0.000 C 
ATOM     22  O   UNL     1      11.720  16.848  61.554  0.00  0.00    +0.000 OA
ENDBRANCH  19  20
ENDBRANCH   3  19
BRANCH   5  23
ATOM     23  O   UNL     1      10.866  10.433  59.735  0.00  0.00    +0.000 OA
BRANCH  23  24
ATOM     24  C   UNL     1       9.934   9.917  60.641  0.00  0.00    +0.000 C 
ATOM     25  C   UNL     1       8.937  10.780  61.309  0.00  0.00    +0.000 C 
ATOM     26  O   UNL     1       9.755   8.668  60.721  0.00  0.00    +0.000 OA
ENDBRANCH  23  24
ENDBRANCH   5  23
TORSDOF 8
ENDMDL
MODEL 4
REMARK VINA RESULT:      -0.0     14.726     17.606
REMARK  Name = 
REMARK  8 active torsions:
REMARK  status: ('A' for Active; 'I' for Inactive)
REMARK    1  A    between atoms: C_2  and  O_4
REMARK    2  A    between atoms: O_4  and  C_5
REMARK    3  A    between atoms: C_8  and  C_9
REMARK    4  A    between atoms: C_10  and  C_11
REMARK    5  A    between atoms: C_13  and  O_14
REMARK    6  A    between atoms: O_14  and  C_15
REMARK    7  A    between atoms: C_19  and  O_20
REMARK    8  A    between atoms: O_20  and  C_21
REMARK                            x       y       z     vdW  Elec       q    Type
REMARK                         _______ _______ _______ _____ _____    ______ ____
ROOT
ATOM      1  C   UNL     1      -1.611  19.744  57.084  0.00  0.00    +0.000 A 
ATOM      2  C   UNL     1      -1.723  21.050  57.524  0.00  0.00    +0.000 A 
ATOM      3  C   UNL     1      -2.929  21.728  57.394  0.00  0.00    +0.000 A 
ATOM      4  C   UNL     1      -3.936  21.223  56.581  0.00  0.00    +0.000 A 
ATOM      5  C   UNL     1      -3.817  19.939  56.086  0.00  0.00    +0.000 A 
ATOM      6  C   UNL     1      -2.579  19.324  56.185  0.00  0.00    +0.000 A 
ENDROOT
BRANCH   1   8
ATOM      7  C   UNL     1       0.778  19.611  57.507  0.00  0.00    +0.000 C 
ATOM      8  C   UNL     1      -0.388  18.996  57.346  0.00  0.00    +0.000 C 
BRANCH   7  12
ATOM      9  C   UNL     1       3.307  18.829  60.811  0.00  0.00    +0.000 A 
ATOM     10  C   UNL     1       2.449  17.834  60.360  0.00  0.00    +0.000 A 
ATOM     11  C   UNL     1       1.608  18.054  59.275  0.00  0.00    +0.000 A 
ATOM     12  C   UNL     1       1.777  19.180  58.480  0.00  0.00    +0.000 A 
ATOM     13  C   UNL     1       3.006  19.815  58.617  0.00  0.00    +0.000 A 
ATOM     14  C   UNL     1       3.508  19.871  59.912  0.00  0.00    +0.000 A 
BRANCH   9  15
ATOM     15  O   UNL     1       3.432  19.124  62.172  0.00  0.00    +0.000 OA
BRANCH  15  17
ATOM     16  C   UNL     1       1.409  20.290  62.992  0.00  0.00    +0.000 C 
ATOM     17  C   UNL     1       2.368  19.170  63.044  0.00  0.00    +0.000 C 
ATOM     18  O   UNL     1       2.407  18.461  64.070  0.00  0.00    +0.000 OA
ENDBRANCH  15  17
ENDBRANCH   9  15
ENDBRANCH   7  12
ENDBRANCH   1   8
BRANCH   3  19
ATOM     19  O   UNL     1      -3.194  22.892  58.104  0.00  0.00    +0.000 OA
BRANCH  19  20
ATOM     20  C   UNL     1      -3.241  22.918  59.497  0.00  0.00    +0.000 C 
ATOM     21  C   UNL     1      -4.128  22.003  60.273  0.00  0.00    +0.000 C 
ATOM     22  O   UNL     1      -2.592  23.838  60.049  0.00  0.00    +0.000 OA
ENDBRANCH  19  20
ENDBRANCH   3  19
BRANCH   5  23
ATOM     23  O   UNL     1      -4.956  19.173  55.825  0.00  0.00    +0.000 OA
BRANCH  23  24
ATOM     24  C   UNL     1      -5.279  18.078  56.632  0.00  0.00    +0.000 C 
ATOM     25  C   UNL     1      -5.648  18.241  58.054  0.00  0.00    +0.000 C 
ATOM     26  O   UNL     1      -5.510  16.951  56.106  0.00  0.00    +0.000 OA
ENDBRANCH  23  24
ENDBRANCH   5  23
TORSDOF 8
ENDMDL
MODEL 5
REMARK VINA RESULT:      -0.0     11.320     14.347
REMARK  Name = 
REMARK  8 active torsions:
REMARK  status: ('A' for Active; 'I' for Inactive)
REMARK    1  A    between atoms: C_2  and  O_4
REMARK    2  A    between atoms: O_4  and  C_5
REMARK    3  A    between atoms: C_8  and  C_9
REMARK    4  A    between atoms: C_10  and  C_11
REMARK    5  A    between atoms: C_13  and  O_14
REMARK    6  A    between atoms: O_14  and  C_15
REMARK    7  A    between atoms: C_19  and  O_20
REMARK    8  A    between atoms: O_20  and  C_21
REMARK                            x       y       z     vdW  Elec       q    Type
REMARK                         _______ _______ _______ _____ _____    ______ ____
ROOT
ATOM      1  C   UNL     1      -5.121  29.901  58.812  0.00  0.00    +0.000 A 
ATOM      2  C   UNL     1      -4.854  28.572  59.086  0.00  0.00    +0.000 A 
ATOM      3  C   UNL     1      -5.136  27.595  58.139  0.00  0.00    +0.000 A 
ATOM      4  C   UNL     1      -5.937  27.888  57.043  0.00  0.00    +0.000 A 
ATOM      5  C   UNL     1      -6.261  29.205  56.783  0.00  0.00    +0.000 A 
ATOM      6  C   UNL     1      -6.016  30.137  57.780  0.00  0.00    +0.000 A 
ENDROOT
BRANCH   1   8
ATOM      7  C   UNL     1      -4.552  30.670  61.046  0.00  0.00    +0.000 C 
ATOM      8  C   UNL     1      -4.699  30.932  59.753  0.00  0.00    +0.000 C 
BRANCH   7  12
ATOM      9  C   UNL     1      -1.040  31.696  63.176  0.00  0.00    +0.000 A 
ATOM     10  C   UNL     1      -1.406  32.446  62.064  0.00  0.00    +0.000 A 
ATOM     11  C   UNL     1      -2.555  32.141  61.344  0.00  0.00    +0.000 A 
ATOM     12  C   UNL     1      -3.478  31.238  61.855  0.00  0.00    +0.000 A 
ATOM     13  C   UNL     1      -3.355  30.981  63.216  0.00  0.00    +0.000 A 
ATOM     14  C   UNL     1      -2.053  30.897  63.693  0.00  0.00    +0.000 A 
BRANCH   9  15
ATOM     15  O   UNL     1       0.277  31.265  63.364  0.00  0.00    +0.000 OA
BRANCH  15  17
ATOM     16  C   UNL     1       0.827  29.452  61.772  0.00  0.00    +0.000 C 
ATOM     17  C   UNL     1       1.075  30.786  62.350  0.00  0.00    +0.000 C 
ATOM     18  O   UNL     1       2.185  31.325  62.159  0.00  0.00    +0.000 OA
ENDBRANCH  15  17
ENDBRANCH   9  15
ENDBRANCH   7  12
ENDBRANCH   1   8
BRANCH   3  19
ATOM     19  O   UNL     1      -4.591  26.320  58.220  0.00  0.00    +0.000 OA
BRANCH  19  20
ATOM     20  C   UNL     1      -3.218  26.093  58.157  0.00  0.00    +0.000 C 
ATOM     21  C   UNL     1      -2.386  26.594  57.023  0.00  0.00    +0.000 C 
ATOM     22  O   UNL     1      -2.747  25.339  59.041  0.00  0.00    +0.000 OA
ENDBRANCH  19  20
ENDBRANCH   3  19
BRANCH   5  23
ATOM     23  O   UNL     1      -6.492  29.633  55.473  0.00  0.00    +0.000 OA
BRANCH  23  24
ATOM     24  C   UNL     1      -5.575  30.465  54.824  0.00  0.00    +0.000 C 
ATOM     25  C   UNL     1      -4.207  30.010  54.494  0.00  0.00    +0.000 C 
ATOM     26  O   UNL     1      -5.969  31.535  54.277  0.00  0.00    +0.000 OA
ENDBRANCH  23  24
ENDBRANCH   5  23
TORSDOF 8
ENDMDL
MODEL 6
REMARK VINA RESULT:      -0.0     14.126     18.256
REMARK  Name = 
REMARK  8 active torsions:
REMARK  status: ('A' for Active; 'I' for Inactive)
REMARK    1  A    between atoms: C_2  and  O_4
REMARK    2  A    between atoms: O_4  and  C_5
REMARK    3  A    between atoms: C_8  and  C_9
REMARK    4  A    between atoms: C_10  and  C_11
REMARK    5  A    between atoms: C_13  and  O_14
REMARK    6  A    between atoms: O_14  and  C_15
REMARK    7  A    between atoms: C_19  and  O_20
REMARK    8  A    between atoms: O_20  and  C_21
REMARK                            x       y       z     vdW  Elec       q    Type
REMARK                         _______ _______ _______ _____ _____    ______ ____
ROOT
ATOM      1  C   UNL     1      -6.971  13.802  73.096  0.00  0.00    +0.000 A 
ATOM      2  C   UNL     1      -7.177  13.076  74.255  0.00  0.00    +0.000 A 
ATOM      3  C   UNL     1      -8.400  13.142  74.911  0.00  0.00    +0.000 A 
ATOM      4  C   UNL     1      -9.319  14.133  74.589  0.00  0.00    +0.000 A 
ATOM      5  C   UNL     1      -9.103  14.907  73.466  0.00  0.00    +0.000 A 
ATOM      6  C   UNL     1      -7.849  14.853  72.879  0.00  0.00    +0.000 A 
ENDROOT
BRANCH   1   8
ATOM      7  C   UNL     1      -4.615  13.229  72.932  0.00  0.00    +0.000 C 
ATOM      8  C   UNL     1      -5.738  13.623  72.341  0.00  0.00    +0.000 C 
BRANCH   7  12
ATOM      9  C   UNL     1      -2.299  10.004  71.463  0.00  0.00    +0.000 A 
ATOM     10  C   UNL     1      -3.079  10.739  70.579  0.00  0.00    +0.000 A 
ATOM     11  C   UNL     1      -3.849  11.808  71.026  0.00  0.00    +0.000 A 
ATOM     12  C   UNL     1      -3.672  12.305  72.310  0.00  0.00    +0.000 A 
ATOM     13  C   UNL     1      -2.485  11.927  72.927  0.00  0.00    +0.000 A 
ATOM     14  C   UNL     1      -2.080  10.618  72.691  0.00  0.00    +0.000 A 
BRANCH   9  15
ATOM     15  O   UNL     1      -2.285   8.606  71.434  0.00  0.00    +0.000 OA
BRANCH  15  17
ATOM     16  C   UNL     1      -4.411   7.703  72.323  0.00  0.00    +0.000 C 
ATOM     17  C   UNL     1      -3.410   7.835  71.248  0.00  0.00    +0.000 C 
ATOM     18  O   UNL     1      -3.415   7.001  70.319  0.00  0.00    +0.000 OA
ENDBRANCH  15  17
ENDBRANCH   9  15
ENDBRANCH   7  12
ENDBRANCH   1   8
BRANCH   3  19
ATOM     19  O   UNL     1      -8.771  12.201  75.863  0.00  0.00    +0.000 OA
BRANCH  19  20
ATOM     20  C   UNL     1      -8.924  10.850  75.553  0.00  0.00    +0.000 C 
ATOM     21  C   UNL     1      -9.824  10.391  74.454  0.00  0.00    +0.000 C 
ATOM     22  O   UNL     1      -8.362  10.044  76.329  0.00  0.00    +0.000 OA
ENDBRANCH  19  20
ENDBRANCH   3  19
BRANCH   5  23
ATOM     23  O   UNL     1     -10.182  15.437  72.754  0.00  0.00    +0.000 OA
BRANCH  23  24
ATOM     24  C   UNL     1     -10.514  14.943  71.489  0.00  0.00    +0.000 C 
ATOM     25  C   UNL     1     -10.996  13.559  71.296  0.00  0.00    +0.000 C 
ATOM     26  O   UNL     1     -10.652  15.738  70.516  0.00  0.00    +0.000 OA
ENDBRANCH  23  24
ENDBRANCH   5  23
TORSDOF 8
ENDMDL
MODEL 7
REMARK VINA RESULT:      -0.0     21.680     24.381
REMARK  Name = 
REMARK  8 active torsions:
REMARK  status: ('A' for Active; 'I' for Inactive)
REMARK    1  A    between atoms: C_2  and  O_4
REMARK    2  A    between atoms: O_4  and  C_5
REMARK    3  A    between atoms: C_8  and  C_9
REMARK    4  A    between atoms: C_10  and  C_11
REMARK    5  A    between atoms: C_13  and  O_14
REMARK    6  A    between atoms: O_14  and  C_15
REMARK    7  A    between atoms: C_19  and  O_20
REMARK    8  A    between atoms: O_20  and  C_21
REMARK                            x       y       z     vdW  Elec       q    Type
REMARK                         _______ _______ _______ _____ _____    ______ ____
ROOT
ATOM      1  C   UNL     1      10.698  22.091  74.601  0.00  0.00    +0.000 A 
ATOM      2  C   UNL     1      11.466  21.400  73.681  0.00  0.00    +0.000 A 
ATOM      3  C   UNL     1      11.572  20.017  73.760  0.00  0.00    +0.000 A 
ATOM      4  C   UNL     1      11.156  19.344  74.902  0.00  0.00    +0.000 A 
ATOM      5  C   UNL     1      10.435  20.030  75.859  0.00  0.00    +0.000 A 
ATOM      6  C   UNL     1      10.406  21.413  75.774  0.00  0.00    +0.000 A 
ENDROOT
BRANCH   1   8
ATOM      7  C   UNL     1      11.360  24.284  73.788  0.00  0.00    +0.000 C 
ATOM      8  C   UNL     1      10.482  23.523  74.432  0.00  0.00    +0.000 C 
BRANCH   7  12
ATOM      9  C   UNL     1      10.216  26.918  70.678  0.00  0.00    +0.000 A 
ATOM     10  C   UNL     1       9.298  26.598  71.671  0.00  0.00    +0.000 A 
ATOM     11  C   UNL     1       9.641  25.741  72.710  0.00  0.00    +0.000 A 
ATOM     12  C   UNL     1      10.967  25.377  72.905  0.00  0.00    +0.000 A 
ATOM     13  C   UNL     1      11.897  26.187  72.263  0.00  0.00    +0.000 A 
ATOM     14  C   UNL     1      11.536  26.620  70.993  0.00  0.00    +0.000 A 
BRANCH   9  15
ATOM     15  O   UNL     1       9.861  26.907  69.325  0.00  0.00    +0.000 OA
BRANCH  15  17
ATOM     16  C   UNL     1       9.579  24.581  68.527  0.00  0.00    +0.000 C 
ATOM     17  C   UNL     1       9.060  25.943  68.754  0.00  0.00    +0.000 C 
ATOM     18  O   UNL     1       8.037  26.306  68.138  0.00  0.00    +0.000 OA
ENDBRANCH  15  17
ENDBRANCH   9  15
ENDBRANCH   7  12
ENDBRANCH   1   8
BRANCH   3  19
ATOM     19  O   UNL     1      12.038  19.257  72.695  0.00  0.00    +0.000 OA
BRANCH  19  20
ATOM     20  C   UNL     1      11.378  19.213  71.468  0.00  0.00    +0.000 C 
ATOM     21  C   UNL     1       9.935  18.845  71.361  0.00  0.00    +0.000 C 
ATOM     22  O   UNL     1      12.097  19.378  70.454  0.00  0.00    +0.000 OA
ENDBRANCH  19  20
ENDBRANCH   3  19
BRANCH   5  23
ATOM     23  O   UNL     1       9.501  19.362  76.655  0.00  0.00    +0.000 OA
BRANCH  23  24
ATOM     24  C   UNL     1       8.131  19.578  76.479  0.00  0.00    +0.000 C 
ATOM     25  C   UNL     1       7.434  19.186  75.235  0.00  0.00    +0.000 C 
ATOM     26  O   UNL     1       7.405  19.880  77.469  0.00  0.00    +0.000 OA
ENDBRANCH  23  24
ENDBRANCH   5  23
TORSDOF 8
ENDMDL
MODEL 8
REMARK VINA RESULT:      -0.0     17.252     21.180
REMARK  Name = 
REMARK  8 active torsions:
REMARK  status: ('A' for Active; 'I' for Inactive)
REMARK    1  A    between atoms: C_2  and  O_4
REMARK    2  A    between atoms: O_4  and  C_5
REMARK    3  A    between atoms: C_8  and  C_9
REMARK    4  A    between atoms: C_10  and  C_11
REMARK    5  A    between atoms: C_13  and  O_14
REMARK    6  A    between atoms: O_14  and  C_15
REMARK    7  A    between atoms: C_19  and  O_20
REMARK    8  A    between atoms: O_20  and  C_21
REMARK                            x       y       z     vdW  Elec       q    Type
REMARK                         _______ _______ _______ _____ _____    ______ ____
ROOT
ATOM      1  C   UNL     1       4.605  20.025  65.525  0.00  0.00    +0.000 A 
ATOM      2  C   UNL     1       4.251  20.316  66.830  0.00  0.00    +0.000 A 
ATOM      3  C   UNL     1       2.934  20.162  67.245  0.00  0.00    +0.000 A 
ATOM      4  C   UNL     1       1.917  19.994  66.314  0.00  0.00    +0.000 A 
ATOM      5  C   UNL     1       2.250  19.758  64.994  0.00  0.00    +0.000 A 
ATOM      6  C   UNL     1       3.563  19.982  64.612  0.00  0.00    +0.000 A 
ENDROOT
BRANCH   1   8
ATOM      7  C   UNL     1       6.888  20.823  65.771  0.00  0.00    +0.000 C 
ATOM      8  C   UNL     1       6.009  20.059  65.133  0.00  0.00    +0.000 C 
BRANCH   7  12
ATOM      9  C   UNL     1      10.566  19.309  67.220  0.00  0.00    +0.000 A 
ATOM     10  C   UNL     1       9.969  18.708  66.119  0.00  0.00    +0.000 A 
ATOM     11  C   UNL     1       8.764  19.182  65.613  0.00  0.00    +0.000 A 
ATOM     12  C   UNL     1       8.257  20.399  66.047  0.00  0.00    +0.000 A 
ATOM     13  C   UNL     1       9.176  21.222  66.689  0.00  0.00    +0.000 A 
ATOM     14  C   UNL     1      10.075  20.573  67.526  0.00  0.00    +0.000 A 
BRANCH   9  15
ATOM     15  O   UNL     1      11.085  18.551  68.274  0.00  0.00    +0.000 OA
BRANCH  15  17
ATOM     16  C   UNL     1       9.250  17.569  69.614  0.00  0.00    +0.000 C 
ATOM     17  C   UNL     1      10.464  17.434  68.788  0.00  0.00    +0.000 C 
ATOM     18  O   UNL     1      11.105  16.364  68.834  0.00  0.00    +0.000 OA
ENDBRANCH  15  17
ENDBRANCH   9  15
ENDBRANCH   7  12
ENDBRANCH   1   8
BRANCH   3  19
ATOM     19  O   UNL     1       2.593  20.114  68.591  0.00  0.00    +0.000 OA
BRANCH  19  20
ATOM     20  C   UNL     1       3.059  19.112  69.440  0.00  0.00    +0.000 C 
ATOM     21  C   UNL     1       2.866  17.664  69.133  0.00  0.00    +0.000 C 
ATOM     22  O   UNL     1       3.535  19.500  70.533  0.00  0.00    +0.000 OA
ENDBRANCH  19  20
ENDBRANCH   3  19
BRANCH   5  23
ATOM     23  O   UNL     1       1.407  19.002  64.176  0.00  0.00    +0.000 OA
BRANCH  23  24
ATOM     24  C   UNL     1       1.775  17.717  63.766  0.00  0.00    +0.000 C 
ATOM     25  C   UNL     1       1.927  16.606  64.729  0.00  0.00    +0.000 C 
ATOM     26  O   UNL     1       1.741  17.411  62.540  0.00  0.00    +0.000 OA
ENDBRANCH  23  24
ENDBRANCH   5  23
TORSDOF 8
ENDMDL
MODEL 9
REMARK VINA RESULT:      -0.0     29.420     32.100
REMARK  Name = 
REMARK  8 active torsions:
REMARK  status: ('A' for Active; 'I' for Inactive)
REMARK    1  A    between atoms: C_2  and  O_4
REMARK    2  A    between atoms: O_4  and  C_5
REMARK    3  A    between atoms: C_8  and  C_9
REMARK    4  A    between atoms: C_10  and  C_11
REMARK    5  A    between atoms: C_13  and  O_14
REMARK    6  A    between atoms: O_14  and  C_15
REMARK    7  A    between atoms: C_19  and  O_20
REMARK    8  A    between atoms: O_20  and  C_21
REMARK                            x       y       z     vdW  Elec       q    Type
REMARK                         _______ _______ _______ _____ _____    ______ ____
ROOT
ATOM      1  C   UNL     1       9.615   5.997  65.520  0.00  0.00    +0.000 A 
ATOM      2  C   UNL     1       9.900   5.202  66.616  0.00  0.00    +0.000 A 
ATOM      3  C   UNL     1       9.853   3.819  66.503  0.00  0.00    +0.000 A 
ATOM      4  C   UNL     1       9.254   3.222  65.401  0.00  0.00    +0.000 A 
ATOM      5  C   UNL     1       8.910   4.007  64.318  0.00  0.00    +0.000 A 
ATOM      6  C   UNL     1       8.915   5.382  64.494  0.00  0.00    +0.000 A 
ENDROOT
BRANCH   1   8
ATOM      7  C   UNL     1       9.719   8.079  66.770  0.00  0.00    +0.000 C 
ATOM      8  C   UNL     1       9.798   7.441  65.608  0.00  0.00    +0.000 C 
BRANCH   7  12
ATOM      9  C   UNL     1      12.716  10.767  68.079  0.00  0.00    +0.000 A 
ATOM     10  C   UNL     1      12.519  10.580  66.717  0.00  0.00    +0.000 A 
ATOM     11  C   UNL     1      11.540   9.709  66.251  0.00  0.00    +0.000 A 
ATOM     12  C   UNL     1      10.593   9.193  67.125  0.00  0.00    +0.000 A 
ATOM     13  C   UNL     1      10.478   9.874  68.332  0.00  0.00    +0.000 A 
ATOM     14  C   UNL     1      11.673  10.320  68.882  0.00  0.00    +0.000 A 
BRANCH   9  15
ATOM     15  O   UNL     1      13.998  10.771  68.637  0.00  0.00    +0.000 OA
BRANCH  15  17
ATOM     16  C   UNL     1      14.934   8.480  68.664  0.00  0.00    +0.000 C 
ATOM     17  C   UNL     1      14.995   9.898  68.264  0.00  0.00    +0.000 C 
ATOM     18  O   UNL     1      16.089  10.368  67.886  0.00  0.00    +0.000 OA
ENDBRANCH  15  17
ENDBRANCH   9  15
ENDBRANCH   7  12
ENDBRANCH   1   8
BRANCH   3  19
ATOM     19  O   UNL     1      10.443   2.988  67.448  0.00  0.00    +0.000 OA
BRANCH  19  20
ATOM     20  C   UNL     1      11.815   2.998  67.692  0.00  0.00    +0.000 C 
ATOM     21  C   UNL     1      12.812   2.800  66.600  0.00  0.00    +0.000 C 
ATOM     22  O   UNL     1      12.155   3.056  68.897  0.00  0.00    +0.000 OA
ENDBRANCH  19  20
ENDBRANCH   3  19
BRANCH   5  23
ATOM     23  O   UNL     1       8.904   3.471  63.028  0.00  0.00    +0.000 OA
BRANCH  23  24
ATOM     24  C   UNL     1       9.877   3.843  62.096  0.00  0.00    +0.000 C 
ATOM     25  C   UNL     1      11.305   3.512  62.286  0.00  0.00    +0.000 C 
ATOM     26  O   UNL     1       9.531   4.249  60.949  0.00  0.00    +0.000 OA
ENDBRANCH  23  24
ENDBRANCH   5  23
TORSDOF 8
ENDMDL
MODEL 10
REMARK VINA RESULT:      -0.0     31.203     33.706
REMARK  Name = 
REMARK  8 active torsions:
REMARK  status: ('A' for Active; 'I' for Inactive)
REMARK    1  A    between atoms: C_2  and  O_4
REMARK    2  A    between atoms: O_4  and  C_5
REMARK    3  A    between atoms: C_8  and  C_9
REMARK    4  A    between atoms: C_10  and  C_11
REMARK    5  A    between atoms: C_13  and  O_14
REMARK    6  A    between atoms: O_14  and  C_15
REMARK    7  A    between atoms: C_19  and  O_20
REMARK    8  A    between atoms: O_20  and  C_21
REMARK                            x       y       z     vdW  Elec       q    Type
REMARK                         _______ _______ _______ _____ _____    ______ ____
ROOT
ATOM      1  C   UNL     1      15.416  23.849  50.963  0.00  0.00    +0.000 A 
ATOM      2  C   UNL     1      16.233  24.675  51.714  0.00  0.00    +0.000 A 
ATOM      3  C   UNL     1      15.676  25.636  52.547  0.00  0.00    +0.000 A 
ATOM      4  C   UNL     1      14.334  25.975  52.432  0.00  0.00    +0.000 A 
ATOM      5  C   UNL     1      13.511  25.195  51.643  0.00  0.00    +0.000 A 
ATOM      6  C   UNL     1      14.114  24.290  50.783  0.00  0.00    +0.000 A 
ENDROOT
BRANCH   1   8
ATOM      7  C   UNL     1      17.256  22.809  49.763  0.00  0.00    +0.000 C 
ATOM      8  C   UNL     1      16.001  22.756  50.197  0.00  0.00    +0.000 C 
BRANCH   7  12
ATOM      9  C   UNL     1      20.010  19.663  50.424  0.00  0.00    +0.000 A 
ATOM     10  C   UNL     1      18.652  19.375  50.355  0.00  0.00    +0.000 A 
ATOM     11  C   UNL     1      17.720  20.382  50.135  0.00  0.00    +0.000 A 
ATOM     12  C   UNL     1      18.140  21.648  49.746  0.00  0.00    +0.000 A 
ATOM     13  C   UNL     1      19.440  21.709  49.258  0.00  0.00    +0.000 A 
ATOM     14  C   UNL     1      20.364  20.907  49.917  0.00  0.00    +0.000 A 
BRANCH   9  15
ATOM     15  O   UNL     1      20.820  19.126  51.429  0.00  0.00    +0.000 OA
BRANCH  15  17
ATOM     16  C   UNL     1      20.328  20.207  53.601  0.00  0.00    +0.000 C 
ATOM     17  C   UNL     1      20.428  19.010  52.744  0.00  0.00    +0.000 C 
ATOM     18  O   UNL     1      20.484  17.887  53.287  0.00  0.00    +0.000 OA
ENDBRANCH  15  17
ENDBRANCH   9  15
ENDBRANCH   7  12
ENDBRANCH   1   8
BRANCH   3  19
ATOM     19  O   UNL     1      16.414  26.248  53.552  0.00  0.00    +0.000 OA
BRANCH  19  20
ATOM     20  C   UNL     1      16.960  25.531  54.616  0.00  0.00    +0.000 C 
ATOM     21  C   UNL     1      16.124  24.654  55.487  0.00  0.00    +0.000 C 
ATOM     22  O   UNL     1      18.164  25.766  54.872  0.00  0.00    +0.000 OA
ENDBRANCH  19  20
ENDBRANCH   3  19
BRANCH   5  23
ATOM     23  O   UNL     1      12.153  25.069  51.944  0.00  0.00    +0.000 OA
BRANCH  23  24
ATOM     24  C   UNL     1      11.641  23.866  52.440  0.00  0.00    +0.000 C 
ATOM     25  C   UNL     1      12.039  23.336  53.761  0.00  0.00    +0.000 C 
ATOM     26  O   UNL     1      10.638  23.330  51.887  0.00  0.00    +0.000 OA
ENDBRANCH  23  24
ENDBRANCH   5  23
TORSDOF 8
ENDMDL
