REMARK  Name = 
REMARK  3 active torsions:
REMARK  status: ('A' for Active; 'I' for Inactive)
REMARK    1  A    between atoms: O_2  and  C_3
REMARK    2  A    between atoms: C_6  and  C_7
REMARK    3  A    between atoms: C_8  and  C_9
REMARK                            x       y       z     vdW  Elec       q    Type
REMARK                         _______ _______ _______ _____ _____    ______ ____
ROOT
ATOM      1  C   UNL     1      -0.240  -1.187   0.319  0.00  0.00    +0.000 C 
ATOM      2  C   UNL     1       0.847  -1.464  -0.364  0.00  0.00    +0.000 C 
ENDROOT
BRANCH   2   3
ATOM      3  C   UNL     1       2.093  -0.695  -0.250  0.00  0.00    +0.000 A 
ATOM      4  C   UNL     1       3.005  -0.910   0.768  0.00  0.00    +0.000 A 
ATOM      5  C   UNL     1       4.196  -0.199   0.700  0.00  0.00    +0.000 A 
ATOM      6  O   UNL     1       5.173  -0.532   1.618  0.00  0.00    +0.000 OA
ATOM      7  C   UNL     1       4.261   0.969  -0.042  0.00  0.00    +0.000 A 
ATOM      8  C   UNL     1       3.154   1.424  -0.750  0.00  0.00    +0.000 A 
ATOM      9  O   UNL     1       2.891   2.789  -0.905  0.00  0.00    +0.000 OA
ATOM     10  C   UNL     1       2.189   0.461  -1.016  0.00  0.00    +0.000 A 
ENDBRANCH   2   3
BRANCH   1  14
ATOM     11  C   UNL     1      -4.144   0.024  -0.228  0.00  0.00    +0.000 A 
ATOM     12  C   UNL     1      -3.173   0.519  -1.090  0.00  0.00    +0.000 A 
ATOM     13  C   UNL     1      -1.933  -0.086  -1.135  0.00  0.00    +0.000 A 
ATOM     14  C   UNL     1      -1.579  -1.126  -0.283  0.00  0.00    +0.000 A 
ATOM     15  C   UNL     1      -2.648  -1.805   0.288  0.00  0.00    +0.000 A 
ATOM     16  C   UNL     1      -3.926  -1.259   0.247  0.00  0.00    +0.000 A 
BRANCH  11  18
ATOM     17  C   UNL     1      -5.046   2.248   0.190  0.00  0.00    +0.000 C 
ATOM     18  O   UNL     1      -5.121   0.831   0.341  0.00  0.00    +0.000 OA
ENDBRANCH  11  18
ENDBRANCH   1  14
TORSDOF 3
