MODEL 1
REMARK VINA RESULT:      -0.0      0.000      0.000
REMARK  Name = 
REMARK  3 active torsions:
REMARK  status: ('A' for Active; 'I' for Inactive)
REMARK    1  A    between atoms: O_2  and  C_3
REMARK    2  A    between atoms: C_6  and  C_7
REMARK    3  A    between atoms: C_8  and  C_9
REMARK                            x       y       z     vdW  Elec       q    Type
REMARK                         _______ _______ _______ _____ _____    ______ ____
ROOT
ATOM      1  C   UNL     1      19.170  30.279  56.618  0.00  0.00    +0.000 C 
ATOM      2  C   UNL     1      20.151  30.102  57.473  0.00  0.00    +0.000 C 
ENDROOT
BRANCH   2   3
ATOM      3  C   UNL     1      20.200  28.990  58.431  0.00  0.00    +0.000 A 
ATOM      4  C   UNL     1      21.114  27.957  58.320  0.00  0.00    +0.000 A 
ATOM      5  C   UNL     1      21.134  27.027  59.351  0.00  0.00    +0.000 A 
ATOM      6  O   UNL     1      22.151  26.094  59.328  0.00  0.00    +0.000 OA
ATOM      7  C   UNL     1      20.021  26.873  60.163  0.00  0.00    +0.000 A 
ATOM      8  C   UNL     1      18.892  27.663  59.979  0.00  0.00    +0.000 A 
ATOM      9  O   UNL     1      17.604  27.167  60.204  0.00  0.00    +0.000 OA
ATOM     10  C   UNL     1      19.107  28.843  59.277  0.00  0.00    +0.000 A 
ENDBRANCH   2   3
BRANCH   1  14
ATOM     11  C   UNL     1      17.763  34.060  57.474  0.00  0.00    +0.000 A 
ATOM     12  C   UNL     1      18.937  33.944  56.739  0.00  0.00    +0.000 A 
ATOM     13  C   UNL     1      19.269  32.726  56.179  0.00  0.00    +0.000 A 
ATOM     14  C   UNL     1      18.518  31.576  56.393  0.00  0.00    +0.000 A 
ATOM     15  C   UNL     1      17.213  31.800  56.813  0.00  0.00    +0.000 A 
ATOM     16  C   UNL     1      16.832  33.053  57.280  0.00  0.00    +0.000 A 
BRANCH  11  18
ATOM     17  C   UNL     1      17.702  34.485  59.872  0.00  0.00    +0.000 C 
ATOM     18  O   UNL     1      17.626  34.955  58.527  0.00  0.00    +0.000 OA
ENDBRANCH  11  18
ENDBRANCH   1  14
TORSDOF 3
ENDMDL
MODEL 2
REMARK VINA RESULT:       0.0     30.878     33.421
REMARK  Name = 
REMARK  3 active torsions:
REMARK  status: ('A' for Active; 'I' for Inactive)
REMARK    1  A    between atoms: O_2  and  C_3
REMARK    2  A    between atoms: C_6  and  C_7
REMARK    3  A    between atoms: C_8  and  C_9
REMARK                            x       y       z     vdW  Elec       q    Type
REMARK                         _______ _______ _______ _____ _____    ______ ____
ROOT
ATOM      1  C   UNL     1       1.810   3.087  59.334  0.00  0.00    +0.000 C 
ATOM      2  C   UNL     1       0.943   3.590  60.182  0.00  0.00    +0.000 C 
ENDROOT
BRANCH   2   3
ATOM      3  C   UNL     1      -0.011   2.774  60.945  0.00  0.00    +0.000 A 
ATOM      4  C   UNL     1       0.069   2.631  62.319  0.00  0.00    +0.000 A 
ATOM      5  C   UNL     1      -0.958   1.928  62.935  0.00  0.00    +0.000 A 
ATOM      6  O   UNL     1      -0.969   1.925  64.316  0.00  0.00    +0.000 OA
ATOM      7  C   UNL     1      -1.725   1.041  62.198  0.00  0.00    +0.000 A 
ATOM      8  C   UNL     1      -1.502   0.868  60.836  0.00  0.00    +0.000 A 
ATOM      9  O   UNL     1      -1.676  -0.373  60.215  0.00  0.00    +0.000 OA
ATOM     10  C   UNL     1      -0.815   1.904  60.217  0.00  0.00    +0.000 A 
ENDBRANCH   2   3
BRANCH   1  14
ATOM     11  C   UNL     1       0.953   4.984  55.774  0.00  0.00    +0.000 A 
ATOM     12  C   UNL     1       1.664   5.685  56.740  0.00  0.00    +0.000 A 
ATOM     13  C   UNL     1       2.227   5.001  57.799  0.00  0.00    +0.000 A 
ATOM     14  C   UNL     1       2.037   3.637  57.990  0.00  0.00    +0.000 A 
ATOM     15  C   UNL     1       1.643   2.935  56.858  0.00  0.00    +0.000 A 
ATOM     16  C   UNL     1       1.174   3.617  55.740  0.00  0.00    +0.000 A 
BRANCH  11  18
ATOM     17  C   UNL     1      -1.446   5.201  55.410  0.00  0.00    +0.000 C 
ATOM     18  O   UNL     1      -0.104   5.546  55.069  0.00  0.00    +0.000 OA
ENDBRANCH  11  18
ENDBRANCH   1  14
TORSDOF 3
ENDMDL
MODEL 3
REMARK VINA RESULT:       0.0     14.396     16.196
REMARK  Name = 
REMARK  3 active torsions:
REMARK  status: ('A' for Active; 'I' for Inactive)
REMARK    1  A    between atoms: O_2  and  C_3
REMARK    2  A    between atoms: C_6  and  C_7
REMARK    3  A    between atoms: C_8  and  C_9
REMARK                            x       y       z     vdW  Elec       q    Type
REMARK                         _______ _______ _______ _____ _____    ______ ____
ROOT
ATOM      1  C   UNL     1      21.932  21.755  45.390  0.00  0.00    +0.000 C 
ATOM      2  C   UNL     1      22.980  22.372  44.895  0.00  0.00    +0.000 C 
ENDROOT
BRANCH   2   3
ATOM      3  C   UNL     1      24.134  21.672  44.317  0.00  0.00    +0.000 A 
ATOM      4  C   UNL     1      24.442  21.740  42.970  0.00  0.00    +0.000 A 
ATOM      5  C   UNL     1      25.622  21.128  42.567  0.00  0.00    +0.000 A 
ATOM      6  O   UNL     1      26.016  21.335  41.260  0.00  0.00    +0.000 OA
ATOM      7  C   UNL     1      26.184  20.131  43.349  0.00  0.00    +0.000 A 
ATOM      8  C   UNL     1      25.598  19.757  44.553  0.00  0.00    +0.000 A 
ATOM      9  O   UNL     1      25.633  18.434  45.007  0.00  0.00    +0.000 OA
ATOM     10  C   UNL     1      24.732  20.694  45.103  0.00  0.00    +0.000 A 
ENDBRANCH   2   3
BRANCH   1  14
ATOM     11  C   UNL     1      21.715  23.092  49.285  0.00  0.00    +0.000 A 
ATOM     12  C   UNL     1      21.278  23.937  48.272  0.00  0.00    +0.000 A 
ATOM     13  C   UNL     1      21.050  23.425  47.011  0.00  0.00    +0.000 A 
ATOM     14  C   UNL     1      21.325  22.102  46.683  0.00  0.00    +0.000 A 
ATOM     15  C   UNL     1      21.412  21.235  47.765  0.00  0.00    +0.000 A 
ATOM     16  C   UNL     1      21.533  21.738  49.056  0.00  0.00    +0.000 A 
BRANCH  11  18
ATOM     17  C   UNL     1      23.914  23.229  50.324  0.00  0.00    +0.000 C 
ATOM     18  O   UNL     1      22.519  23.529  50.330  0.00  0.00    +0.000 OA
ENDBRANCH  11  18
ENDBRANCH   1  14
TORSDOF 3
ENDMDL
MODEL 4
REMARK VINA RESULT:       0.0     19.629     21.566
REMARK  Name = 
REMARK  3 active torsions:
REMARK  status: ('A' for Active; 'I' for Inactive)
REMARK    1  A    between atoms: O_2  and  C_3
REMARK    2  A    between atoms: C_6  and  C_7
REMARK    3  A    between atoms: C_8  and  C_9
REMARK                            x       y       z     vdW  Elec       q    Type
REMARK                         _______ _______ _______ _____ _____    ______ ____
ROOT
ATOM      1  C   UNL     1       5.861  16.193  62.711  0.00  0.00    +0.000 C 
ATOM      2  C   UNL     1       5.768  15.233  63.603  0.00  0.00    +0.000 C 
ENDROOT
BRANCH   2   3
ATOM      3  C   UNL     1       5.253  13.892  63.298  0.00  0.00    +0.000 A 
ATOM      4  C   UNL     1       6.067  12.774  63.276  0.00  0.00    +0.000 A 
ATOM      5  C   UNL     1       5.441  11.549  63.088  0.00  0.00    +0.000 A 
ATOM      6  O   UNL     1       6.225  10.421  63.231  0.00  0.00    +0.000 OA
ATOM      7  C   UNL     1       4.190  11.497  62.495  0.00  0.00    +0.000 A 
ATOM      8  C   UNL     1       3.536  12.663  62.112  0.00  0.00    +0.000 A 
ATOM      9  O   UNL     1       2.719  12.709  60.977  0.00  0.00    +0.000 OA
ATOM     10  C   UNL     1       3.984  13.820  62.735  0.00  0.00    +0.000 A 
ENDBRANCH   2   3
BRANCH   1  14
ATOM     11  C   UNL     1       3.627  19.267  64.315  0.00  0.00    +0.000 A 
ATOM     12  C   UNL     1       4.906  19.050  64.815  0.00  0.00    +0.000 A 
ATOM     13  C   UNL     1       5.783  18.249  64.111  0.00  0.00    +0.000 A 
ATOM     14  C   UNL     1       5.411  17.570  62.956  0.00  0.00    +0.000 A 
ATOM     15  C   UNL     1       4.288  18.077  62.315  0.00  0.00    +0.000 A 
ATOM     16  C   UNL     1       3.451  18.972  62.973  0.00  0.00    +0.000 A 
BRANCH  11  18
ATOM     17  C   UNL     1       1.535  18.490  65.292  0.00  0.00    +0.000 C 
ATOM     18  O   UNL     1       2.532  19.499  65.137  0.00  0.00    +0.000 OA
ENDBRANCH  11  18
ENDBRANCH   1  14
TORSDOF 3
ENDMDL
MODEL 5
REMARK VINA RESULT:       0.0     17.316     19.250
REMARK  Name = 
REMARK  3 active torsions:
REMARK  status: ('A' for Active; 'I' for Inactive)
REMARK    1  A    between atoms: O_2  and  C_3
REMARK    2  A    between atoms: C_6  and  C_7
REMARK    3  A    between atoms: C_8  and  C_9
REMARK                            x       y       z     vdW  Elec       q    Type
REMARK                         _______ _______ _______ _____ _____    ______ ____
ROOT
ATOM      1  C   UNL     1      15.153  13.699  51.474  0.00  0.00    +0.000 C 
ATOM      2  C   UNL     1      14.315  14.710  51.457  0.00  0.00    +0.000 C 
ENDROOT
BRANCH   2   3
ATOM      3  C   UNL     1      12.944  14.617  50.938  0.00  0.00    +0.000 A 
ATOM      4  C   UNL     1      11.835  14.682  51.762  0.00  0.00    +0.000 A 
ATOM      5  C   UNL     1      10.594  14.697  51.139  0.00  0.00    +0.000 A 
ATOM      6  O   UNL     1       9.496  14.929  51.944  0.00  0.00    +0.000 OA
ATOM      7  C   UNL     1      10.462  14.204  49.851  0.00  0.00    +0.000 A 
ATOM      8  C   UNL     1      11.567  13.721  49.158  0.00  0.00    +0.000 A 
ATOM      9  O   UNL     1      11.464  12.649  48.265  0.00  0.00    +0.000 OA
ATOM     10  C   UNL     1      12.797  14.158  49.634  0.00  0.00    +0.000 A 
ENDBRANCH   2   3
BRANCH   1  14
ATOM     11  C   UNL     1      18.399  15.049  49.318  0.00  0.00    +0.000 A 
ATOM     12  C   UNL     1      18.250  15.485  50.629  0.00  0.00    +0.000 A 
ATOM     13  C   UNL     1      17.369  14.830  51.466  0.00  0.00    +0.000 A 
ATOM     14  C   UNL     1      16.549  13.798  51.026  0.00  0.00    +0.000 A 
ATOM     15  C   UNL     1      16.967  13.175  49.857  0.00  0.00    +0.000 A 
ATOM     16  C   UNL     1      17.935  13.770  49.056  0.00  0.00    +0.000 A 
BRANCH  11  18
ATOM     17  C   UNL     1      17.719  16.349  47.373  0.00  0.00    +0.000 C 
ATOM     18  O   UNL     1      18.731  15.907  48.277  0.00  0.00    +0.000 OA
ENDBRANCH  11  18
ENDBRANCH   1  14
TORSDOF 3
ENDMDL
MODEL 6
REMARK VINA RESULT:       0.0     21.500     23.469
REMARK  Name = 
REMARK  3 active torsions:
REMARK  status: ('A' for Active; 'I' for Inactive)
REMARK    1  A    between atoms: O_2  and  C_3
REMARK    2  A    between atoms: C_6  and  C_7
REMARK    3  A    between atoms: C_8  and  C_9
REMARK                            x       y       z     vdW  Elec       q    Type
REMARK                         _______ _______ _______ _____ _____    ______ ____
ROOT
ATOM      1  C   UNL     1      -1.689  31.235  65.075  0.00  0.00    +0.000 C 
ATOM      2  C   UNL     1      -2.864  31.078  65.641  0.00  0.00    +0.000 C 
ENDROOT
BRANCH   2   3
ATOM      3  C   UNL     1      -4.022  30.492  64.954  0.00  0.00    +0.000 A 
ATOM      4  C   UNL     1      -4.539  29.255  65.298  0.00  0.00    +0.000 A 
ATOM      5  C   UNL     1      -5.703  28.863  64.651  0.00  0.00    +0.000 A 
ATOM      6  O   UNL     1      -6.312  27.711  65.109  0.00  0.00    +0.000 OA
ATOM      7  C   UNL     1      -6.042  29.432  63.434  0.00  0.00    +0.000 A 
ATOM      8  C   UNL     1      -5.245  30.419  62.865  0.00  0.00    +0.000 A 
ATOM      9  O   UNL     1      -5.085  30.525  61.479  0.00  0.00    +0.000 OA
ATOM     10  C   UNL     1      -4.397  31.074  63.749  0.00  0.00    +0.000 A 
ENDBRANCH   2   3
BRANCH   1  14
ATOM     11  C   UNL     1      -0.950  35.279  65.404  0.00  0.00    +0.000 A 
ATOM     12  C   UNL     1      -0.765  34.481  66.527  0.00  0.00    +0.000 A 
ATOM     13  C   UNL     1      -0.704  33.110  66.383  0.00  0.00    +0.000 A 
ATOM     14  C   UNL     1      -0.910  32.478  65.161  0.00  0.00    +0.000 A 
ATOM     15  C   UNL     1      -0.737  33.289  64.046  0.00  0.00    +0.000 A 
ATOM     16  C   UNL     1      -0.687  34.671  64.187  0.00  0.00    +0.000 A 
BRANCH  11  18
ATOM     17  C   UNL     1      -2.989  36.580  65.117  0.00  0.00    +0.000 C 
ATOM     18  O   UNL     1      -1.605  36.503  65.456  0.00  0.00    +0.000 OA
ENDBRANCH  11  18
ENDBRANCH   1  14
TORSDOF 3
ENDMDL
MODEL 7
REMARK VINA RESULT:       0.0     21.292     23.794
REMARK  Name = 
REMARK  3 active torsions:
REMARK  status: ('A' for Active; 'I' for Inactive)
REMARK    1  A    between atoms: O_2  and  C_3
REMARK    2  A    between atoms: C_6  and  C_7
REMARK    3  A    between atoms: C_8  and  C_9
REMARK                            x       y       z     vdW  Elec       q    Type
REMARK                         _______ _______ _______ _____ _____    ______ ____
ROOT
ATOM      1  C   UNL     1       2.600  17.403  70.534  0.00  0.00    +0.000 C 
ATOM      2  C   UNL     1       3.472  18.203  69.965  0.00  0.00    +0.000 C 
ENDROOT
BRANCH   2   3
ATOM      3  C   UNL     1       4.876  18.302  70.387  0.00  0.00    +0.000 A 
ATOM      4  C   UNL     1       5.916  17.812  69.618  0.00  0.00    +0.000 A 
ATOM      5  C   UNL     1       7.203  18.069  70.072  0.00  0.00    +0.000 A 
ATOM      6  O   UNL     1       8.241  17.728  69.226  0.00  0.00    +0.000 OA
ATOM      7  C   UNL     1       7.418  18.360  71.409  0.00  0.00    +0.000 A 
ATOM      8  C   UNL     1       6.354  18.430  72.301  0.00  0.00    +0.000 A 
ATOM      9  O   UNL     1       6.484  18.025  73.634  0.00  0.00    +0.000 OA
ATOM     10  C   UNL     1       5.109  18.629  71.718  0.00  0.00    +0.000 A 
ENDBRANCH   2   3
BRANCH   1  14
ATOM     11  C   UNL     1      -0.418  19.932  71.761  0.00  0.00    +0.000 A 
ATOM     12  C   UNL     1      -0.361  19.575  70.419  0.00  0.00    +0.000 A 
ATOM     13  C   UNL     1       0.429  18.510  70.033  0.00  0.00    +0.000 A 
ATOM     14  C   UNL     1       1.248  17.828  70.924  0.00  0.00    +0.000 A 
ATOM     15  C   UNL     1       0.906  17.971  72.263  0.00  0.00    +0.000 A 
ATOM     16  C   UNL     1       0.025  18.972  72.656  0.00  0.00    +0.000 A 
BRANCH  11  18
ATOM     17  C   UNL     1       0.466  22.050  72.579  0.00  0.00    +0.000 C 
ATOM     18  O   UNL     1      -0.638  21.239  72.178  0.00  0.00    +0.000 OA
ENDBRANCH  11  18
ENDBRANCH   1  14
TORSDOF 3
ENDMDL
MODEL 8
REMARK VINA RESULT:       0.0     23.564     25.848
REMARK  Name = 
REMARK  3 active torsions:
REMARK  status: ('A' for Active; 'I' for Inactive)
REMARK    1  A    between atoms: O_2  and  C_3
REMARK    2  A    between atoms: C_6  and  C_7
REMARK    3  A    between atoms: C_8  and  C_9
REMARK                            x       y       z     vdW  Elec       q    Type
REMARK                         _______ _______ _______ _____ _____    ______ ____
ROOT
ATOM      1  C   UNL     1       4.818   8.155  53.570  0.00  0.00    +0.000 C 
ATOM      2  C   UNL     1       5.203   8.080  54.823  0.00  0.00    +0.000 C 
ENDROOT
BRANCH   2   3
ATOM      3  C   UNL     1       4.368   8.508  55.953  0.00  0.00    +0.000 A 
ATOM      4  C   UNL     1       3.812   7.607  56.844  0.00  0.00    +0.000 A 
ATOM      5  C   UNL     1       3.138   8.143  57.935  0.00  0.00    +0.000 A 
ATOM      6  O   UNL     1       2.727   7.255  58.910  0.00  0.00    +0.000 OA
ATOM      7  C   UNL     1       2.652   9.439  57.877  0.00  0.00    +0.000 A 
ATOM      8  C   UNL     1       2.857  10.226  56.749  0.00  0.00    +0.000 A 
ATOM      9  O   UNL     1       1.905  11.155  56.317  0.00  0.00    +0.000 OA
ATOM     10  C   UNL     1       3.901   9.817  55.928  0.00  0.00    +0.000 A 
ENDBRANCH   2   3
BRANCH   1  14
ATOM     11  C   UNL     1       7.716  10.473  51.771  0.00  0.00    +0.000 A 
ATOM     12  C   UNL     1       8.005   9.138  52.029  0.00  0.00    +0.000 A 
ATOM     13  C   UNL     1       6.979   8.269  52.340  0.00  0.00    +0.000 A 
ATOM     14  C   UNL     1       5.664   8.693  52.495  0.00  0.00    +0.000 A 
ATOM     15  C   UNL     1       5.367   9.912  51.899  0.00  0.00    +0.000 A 
ATOM     16  C   UNL     1       6.391  10.754  51.480  0.00  0.00    +0.000 A 
BRANCH  11  18
ATOM     17  C   UNL     1       8.448  12.286  53.224  0.00  0.00    +0.000 C 
ATOM     18  O   UNL     1       8.612  11.499  52.045  0.00  0.00    +0.000 OA
ENDBRANCH  11  18
ENDBRANCH   1  14
TORSDOF 3
ENDMDL
MODEL 9
REMARK VINA RESULT:       0.0     24.595     27.544
REMARK  Name = 
REMARK  3 active torsions:
REMARK  status: ('A' for Active; 'I' for Inactive)
REMARK    1  A    between atoms: O_2  and  C_3
REMARK    2  A    between atoms: C_6  and  C_7
REMARK    3  A    between atoms: C_8  and  C_9
REMARK                            x       y       z     vdW  Elec       q    Type
REMARK                         _______ _______ _______ _____ _____    ______ ____
ROOT
ATOM      1  C   UNL     1       5.916   7.019  64.060  0.00  0.00    +0.000 C 
ATOM      2  C   UNL     1       5.394   6.974  65.265  0.00  0.00    +0.000 C 
ENDROOT
BRANCH   2   3
ATOM      3  C   UNL     1       3.977   6.689  65.523  0.00  0.00    +0.000 A 
ATOM      4  C   UNL     1       3.554   5.507  66.104  0.00  0.00    +0.000 A 
ATOM      5  C   UNL     1       2.200   5.406  66.400  0.00  0.00    +0.000 A 
ATOM      6  O   UNL     1       1.803   4.301  67.127  0.00  0.00    +0.000 OA
ATOM      7  C   UNL     1       1.287   6.208  65.735  0.00  0.00    +0.000 A 
ATOM      8  C   UNL     1       1.711   7.140  64.795  0.00  0.00    +0.000 A 
ATOM      9  O   UNL     1       0.948   7.442  63.663  0.00  0.00    +0.000 OA
ATOM     10  C   UNL     1       3.047   7.508  64.892  0.00  0.00    +0.000 A 
ENDBRANCH   2   3
BRANCH   1  14
ATOM     11  C   UNL     1       7.542  10.800  63.808  0.00  0.00    +0.000 A 
ATOM     12  C   UNL     1       8.231   9.833  64.529  0.00  0.00    +0.000 A 
ATOM     13  C   UNL     1       7.886   8.504  64.384  0.00  0.00    +0.000 A 
ATOM     14  C   UNL     1       6.810   8.093  63.606  0.00  0.00    +0.000 A 
ATOM     15  C   UNL     1       6.391   9.014  62.654  0.00  0.00    +0.000 A 
ATOM     16  C   UNL     1       6.816  10.335  62.723  0.00  0.00    +0.000 A 
BRANCH  11  18
ATOM     17  C   UNL     1       6.165  12.431  64.981  0.00  0.00    +0.000 C 
ATOM     18  O   UNL     1       7.360  12.095  64.277  0.00  0.00    +0.000 OA
ENDBRANCH  11  18
ENDBRANCH   1  14
TORSDOF 3
ENDMDL
MODEL 10
REMARK VINA RESULT:       0.0     22.930     25.856
REMARK  Name = 
REMARK  3 active torsions:
REMARK  status: ('A' for Active; 'I' for Inactive)
REMARK    1  A    between atoms: O_2  and  C_3
REMARK    2  A    between atoms: C_6  and  C_7
REMARK    3  A    between atoms: C_8  and  C_9
REMARK                            x       y       z     vdW  Elec       q    Type
REMARK                         _______ _______ _______ _____ _____    ______ ____
ROOT
ATOM      1  C   UNL     1      -2.835  37.429  72.116  0.00  0.00    +0.000 C 
ATOM      2  C   UNL     1      -2.880  37.822  70.864  0.00  0.00    +0.000 C 
ENDROOT
BRANCH   2   3
ATOM      3  C   UNL     1      -3.233  36.933  69.749  0.00  0.00    +0.000 A 
ATOM      4  C   UNL     1      -4.400  37.086  69.022  0.00  0.00    +0.000 A 
ATOM      5  C   UNL     1      -4.564  36.255  67.921  0.00  0.00    +0.000 A 
ATOM      6  O   UNL     1      -5.643  36.515  67.100  0.00  0.00    +0.000 OA
ATOM      7  C   UNL     1      -3.862  35.063  67.846  0.00  0.00    +0.000 A 
ATOM      8  C   UNL     1      -2.966  34.701  68.846  0.00  0.00    +0.000 A 
ATOM      9  O   UNL     1      -2.782  33.366  69.221  0.00  0.00    +0.000 OA
ATOM     10  C   UNL     1      -2.513  35.749  69.638  0.00  0.00    +0.000 A 
ENDBRANCH   2   3
BRANCH   1  14
ATOM     11  C   UNL     1       1.024  38.267  73.306  0.00  0.00    +0.000 A 
ATOM     12  C   UNL     1       0.120  39.319  73.211  0.00  0.00    +0.000 A 
ATOM     13  C   UNL     1      -1.230  39.047  73.117  0.00  0.00    +0.000 A 
ATOM     14  C   UNL     1      -1.725  37.751  73.024  0.00  0.00    +0.000 A 
ATOM     15  C   UNL     1      -0.860  36.760  73.470  0.00  0.00    +0.000 A 
ATOM     16  C   UNL     1       0.485  37.045  73.674  0.00  0.00    +0.000 A 
BRANCH  11  18
ATOM     17  C   UNL     1       2.652  37.698  71.585  0.00  0.00    +0.000 C 
ATOM     18  O   UNL     1       2.320  38.348  72.812  0.00  0.00    +0.000 OA
ENDBRANCH  11  18
ENDBRANCH   1  14
TORSDOF 3
ENDMDL
