REMARK  Name = 
REMARK  5 active torsions:
REMARK  status: ('A' for Active; 'I' for Inactive)
REMARK    1  A    between atoms: C_2  and  C_3
REMARK    2  A    between atoms: C_5  and  O_6
REMARK    3  A    between atoms: O_6  and  C_7
REMARK    4  A    between atoms: C_12  and  C_13
REMARK    5  A    between atoms: C_14  and  C_15
REMARK                            x       y       z     vdW  Elec       q    Type
REMARK                         _______ _______ _______ _____ _____    ______ ____
ROOT
ATOM      1  C   UNL     1      -0.963   0.146   0.711  0.00  0.00    +0.000 A 
ATOM      2  C   UNL     1      -0.891   0.669  -0.555  0.00  0.00    +0.000 A 
ATOM      3  C   UNL     1       0.215   1.216  -1.132  0.00  0.00    +0.000 A 
ATOM      4  O   UNL     1       0.212   1.817  -2.371  0.00  0.00    +0.000 OA
ATOM      5  C   UNL     1       1.353   1.220  -0.365  0.00  0.00    +0.000 A 
ATOM      6  C   UNL     1       1.378   0.209   0.601  0.00  0.00    +0.000 A 
ATOM      7  C   UNL     1       0.275  -0.016   1.343  0.00  0.00    +0.000 A 
ENDROOT
BRANCH   6   8
ATOM      8  C   UNL     1       2.651  -0.248   1.169  0.00  0.00    +0.000 C 
ATOM      9  C   UNL     1       3.334  -1.104   0.468  0.00  0.00    +0.000 C 
BRANCH   9  10
ATOM     10  C   UNL     1       4.716  -0.736   0.169  0.00  0.00    +0.000 A 
ATOM     11  C   UNL     1       5.111   0.599   0.126  0.00  0.00    +0.000 A 
ATOM     12  C   UNL     1       6.378   0.957   0.473  0.00  0.00    +0.000 A 
ATOM     13  C   UNL     1       7.271  -0.102   0.560  0.00  0.00    +0.000 A 
ATOM     14  O   UNL     1       8.591   0.215   0.742  0.00  0.00    +0.000 OA
ATOM     15  C   UNL     1       6.911  -1.413   0.332  0.00  0.00    +0.000 A 
ATOM     16  C   UNL     1       5.615  -1.727  -0.050  0.00  0.00    +0.000 A 
ENDBRANCH   9  10
ENDBRANCH   6   8
BRANCH   1  17
ATOM     17  O   UNL     1      -1.915  -0.339   1.465  0.00  0.00    +0.000 OA
BRANCH  17  20
ATOM     18  C   UNL     1      -5.101  -1.175   0.463  0.00  0.00    +0.000 C 
ATOM     19  O   UNL     1      -3.596  -1.187   0.361  0.00  0.00    +0.000 OA
ATOM     20  C   UNL     1      -3.421  -0.062   1.382  0.00  0.00    +0.000 C 
ATOM     21  C   UNL     1      -3.301   1.064   0.079  0.00  0.00    +0.000 C 
ATOM     22  O   UNL     1      -3.063   2.207   1.011  0.00  0.00    +0.000 OA
ATOM     23  C   UNL     1      -4.986   1.271   0.175  0.00  0.00    +0.000 C 
ATOM     24  O   UNL     1      -4.955   2.202  -0.999  0.00  0.00    +0.000 OA
ATOM     25  C   UNL     1      -5.245  -0.074  -0.840  0.00  0.00    +0.000 C 
ATOM     26  O   UNL     1      -6.719   0.042  -0.617  0.00  0.00    +0.000 OA
BRANCH  18  28
ATOM     27  O   UNL     1      -4.645  -3.193  -0.071  0.00  0.00    +0.000 OA
ATOM     28  C   UNL     1      -5.209  -2.458  -0.550  0.00  0.00    +0.000 C 
ENDBRANCH  18  28
ENDBRANCH  17  20
ENDBRANCH   1  17
TORSDOF 5
