REMARK  Name = 
REMARK  5 active torsions:
REMARK  status: ('A' for Active; 'I' for Inactive)
REMARK    1  A    between atoms: O_2  and  C_3
REMARK    2  A    between atoms: C_5  and  C_6
REMARK    3  A    between atoms: C_7  and  C_8
REMARK    4  A    between atoms: C_11  and  O_12
REMARK    5  A    between atoms: C_18  and  O_19
REMARK                            x       y       z     vdW  Elec       q    Type
REMARK                         _______ _______ _______ _____ _____    ______ ____
ROOT
ATOM      1  C   UNL     1       0.382  -0.446  -2.035  0.00  0.00    +0.000 C 
ATOM      2  C   UNL     1      -0.527   0.534  -1.987  0.00  0.00    +0.000 C 
ENDROOT
BRANCH   2   3
ATOM      3  C   UNL     1      -1.286   0.492  -0.727  0.00  0.00    +0.000 A 
ATOM      4  C   UNL     1      -1.880   1.630  -0.193  0.00  0.00    +0.000 A 
ATOM      5  C   UNL     1      -3.160   1.587   0.345  0.00  0.00    +0.000 A 
ATOM      6  C   UNL     1      -3.808   0.373   0.508  0.00  0.00    +0.000 A 
ATOM      7  C   UNL     1      -3.161  -0.798   0.130  0.00  0.00    +0.000 A 
ATOM      8  O   UNL     1      -3.657  -2.057   0.460  0.00  0.00    +0.000 OA
ATOM      9  C   UNL     1      -1.861  -0.703  -0.307  0.00  0.00    +0.000 A 
BRANCH   6  10
ATOM     10  O   UNL     1      -4.860   0.201   1.413  0.00  0.00    +0.000 OA
ATOM     11  C   UNL     1      -6.156   0.704   1.194  0.00  0.00    +0.000 C 
ENDBRANCH   6  10
ENDBRANCH   2   3
BRANCH   1  14
ATOM     12  C   UNL     1       3.680   0.410  -0.630  0.00  0.00    +0.000 A 
ATOM     13  C   UNL     1       2.695   0.018  -1.527  0.00  0.00    +0.000 A 
ATOM     14  C   UNL     1       1.431  -0.308  -1.051  0.00  0.00    +0.000 A 
ATOM     15  C   UNL     1       1.368  -0.755   0.247  0.00  0.00    +0.000 A 
ATOM     16  C   UNL     1       2.478  -0.849   1.052  0.00  0.00    +0.000 A 
ATOM     17  C   UNL     1       3.585  -0.105   0.659  0.00  0.00    +0.000 A 
BRANCH  12  19
ATOM     18  C   UNL     1       4.383   2.521  -1.701  0.00  0.00    +0.000 C 
ATOM     19  O   UNL     1       4.670   1.325  -0.986  0.00  0.00    +0.000 OA
ENDBRANCH  12  19
BRANCH  16  20
ATOM     20  O   UNL     1       2.424  -1.373   2.332  0.00  0.00    +0.000 OA
ATOM     21  C   UNL     1       3.259  -2.400   2.804  0.00  0.00    +0.000 C 
ENDBRANCH  16  20
ENDBRANCH   1  14
TORSDOF 5
