REMARK  Name = 
REMARK  2 active torsions:
REMARK  status: ('A' for Active; 'I' for Inactive)
REMARK    1  A    between atoms: C_7  and  C_8
REMARK    2  A    between atoms: C_9  and  C_10
REMARK                            x       y       z     vdW  Elec       q    Type
REMARK                         _______ _______ _______ _____ _____    ______ ____
ROOT
ATOM      1  C   UNL     1      -0.575  -2.096   0.442  0.00  0.00    +0.000 C 
ATOM      2  C   UNL     1       0.570  -1.721   1.017  0.00  0.00    +0.000 C 
ENDROOT
BRANCH   1   9
ATOM      3  O   UNL     1      -3.859  -0.035  -2.479  0.00  0.00    +0.000 OA
ATOM      4  C   UNL     1      -3.141  -0.031  -1.280  0.00  0.00    +0.000 A 
ATOM      5  C   UNL     1      -3.395   0.875  -0.273  0.00  0.00    +0.000 A 
ATOM      6  C   UNL     1      -2.993   0.617   1.021  0.00  0.00    +0.000 A 
ATOM      7  O   UNL     1      -3.321   1.459   2.081  0.00  0.00    +0.000 OA
ATOM      8  C   UNL     1      -2.039  -0.346   1.216  0.00  0.00    +0.000 A 
ATOM      9  C   UNL     1      -1.479  -0.985   0.114  0.00  0.00    +0.000 A 
ATOM     10  C   UNL     1      -2.323  -1.114  -0.983  0.00  0.00    +0.000 A 
ENDBRANCH   1   9
BRANCH   2  11
ATOM     11  C   UNL     1       1.364  -0.793   0.201  0.00  0.00    +0.000 A 
ATOM     12  C   UNL     1       0.888   0.435  -0.206  0.00  0.00    +0.000 A 
ATOM     13  C   UNL     1       1.817   1.440  -0.446  0.00  0.00    +0.000 A 
ATOM     14  C   UNL     1       3.180   1.234  -0.273  0.00  0.00    +0.000 A 
ATOM     15  O   UNL     1       3.938   2.376  -0.033  0.00  0.00    +0.000 OA
ATOM     16  C   UNL     1       3.651  -0.046  -0.080  0.00  0.00    +0.000 A 
ATOM     17  O   UNL     1       4.999  -0.213   0.145  0.00  0.00    +0.000 OA
ATOM     18  C   UNL     1       2.717  -1.054   0.021  0.00  0.00    +0.000 A 
ENDBRANCH   2  11
TORSDOF 2
