MODEL 1
REMARK VINA RESULT:      -0.0      0.000      0.000
REMARK  Name = 
REMARK  2 active torsions:
REMARK  status: ('A' for Active; 'I' for Inactive)
REMARK    1  A    between atoms: C_7  and  C_8
REMARK    2  A    between atoms: C_9  and  C_10
REMARK                            x       y       z     vdW  Elec       q    Type
REMARK                         _______ _______ _______ _____ _____    ______ ____
ROOT
ATOM      1  C   UNL     1       3.128  22.022  72.597  0.00  0.00    +0.000 C 
ATOM      2  C   UNL     1       3.469  23.034  71.797  0.00  0.00    +0.000 C 
ENDROOT
BRANCH   1   9
ATOM      3  O   UNL     1      -1.192  19.972  73.431  0.00  0.00    +0.000 OA
ATOM      4  C   UNL     1      -0.321  21.053  73.586  0.00  0.00    +0.000 A 
ATOM      5  C   UNL     1      -0.621  22.130  74.393  0.00  0.00    +0.000 A 
ATOM      6  C   UNL     1       0.380  22.958  74.858  0.00  0.00    +0.000 A 
ATOM      7  O   UNL     1       0.128  23.992  75.757  0.00  0.00    +0.000 OA
ATOM      8  C   UNL     1       1.592  22.918  74.222  0.00  0.00    +0.000 A 
ATOM      9  C   UNL     1       1.754  22.095  73.112  0.00  0.00    +0.000 A 
ATOM     10  C   UNL     1       0.983  20.938  73.120  0.00  0.00    +0.000 A 
ENDBRANCH   1   9
BRANCH   2  11
ATOM     11  C   UNL     1       2.610  23.166  70.613  0.00  0.00    +0.000 A 
ATOM     12  C   UNL     1       2.398  22.130  69.727  0.00  0.00    +0.000 A 
ATOM     13  C   UNL     1       1.204  22.122  69.017  0.00  0.00    +0.000 A 
ATOM     14  C   UNL     1       0.241  23.109  69.192  0.00  0.00    +0.000 A 
ATOM     15  O   UNL     1      -1.061  22.748  68.859  0.00  0.00    +0.000 OA
ATOM     16  C   UNL     1       0.557  24.241  69.910  0.00  0.00    +0.000 A 
ATOM     17  O   UNL     1      -0.434  25.175  70.115  0.00  0.00    +0.000 OA
ATOM     18  C   UNL     1       1.802  24.290  70.497  0.00  0.00    +0.000 A 
ENDBRANCH   2  11
TORSDOF 2
ENDMDL
MODEL 2
REMARK VINA RESULT:       0.0     30.741     33.541
REMARK  Name = 
REMARK  2 active torsions:
REMARK  status: ('A' for Active; 'I' for Inactive)
REMARK    1  A    between atoms: C_7  and  C_8
REMARK    2  A    between atoms: C_9  and  C_10
REMARK                            x       y       z     vdW  Elec       q    Type
REMARK                         _______ _______ _______ _____ _____    ______ ____
ROOT
ATOM      1  C   UNL     1      -0.282   5.227  43.859  0.00  0.00    +0.000 C 
ATOM      2  C   UNL     1       0.789   5.837  44.373  0.00  0.00    +0.000 C 
ENDROOT
BRANCH   1   9
ATOM      3  O   UNL     1      -1.971   0.724  44.518  0.00  0.00    +0.000 OA
ATOM      4  C   UNL     1      -1.015   1.585  43.973  0.00  0.00    +0.000 A 
ATOM      5  C   UNL     1      -0.032   1.144  43.113  0.00  0.00    +0.000 A 
ATOM      6  C   UNL     1       0.619   2.028  42.278  0.00  0.00    +0.000 A 
ATOM      7  O   UNL     1       1.543   1.605  41.326  0.00  0.00    +0.000 OA
ATOM      8  C   UNL     1       0.542   3.363  42.573  0.00  0.00    +0.000 A 
ATOM      9  C   UNL     1      -0.138   3.772  43.717  0.00  0.00    +0.000 A 
ATOM     10  C   UNL     1      -1.199   2.957  44.093  0.00  0.00    +0.000 A 
ENDBRANCH   1   9
BRANCH   2  11
ATOM     11  C   UNL     1       1.166   5.345  45.705  0.00  0.00    +0.000 A 
ATOM     12  C   UNL     1       0.286   5.320  46.766  0.00  0.00    +0.000 A 
ATOM     13  C   UNL     1       0.496   4.369  47.756  0.00  0.00    +0.000 A 
ATOM     14  C   UNL     1       1.543   3.458  47.686  0.00  0.00    +0.000 A 
ATOM     15  O   UNL     1       1.365   2.277  48.401  0.00  0.00    +0.000 OA
ATOM     16  C   UNL     1       2.531   3.635  46.743  0.00  0.00    +0.000 A 
ATOM     17  O   UNL     1       3.525   2.686  46.661  0.00  0.00    +0.000 OA
ATOM     18  C   UNL     1       2.372   4.672  45.850  0.00  0.00    +0.000 A 
ENDBRANCH   2  11
TORSDOF 2
ENDMDL
MODEL 3
REMARK VINA RESULT:       0.0      9.208     11.790
REMARK  Name = 
REMARK  2 active torsions:
REMARK  status: ('A' for Active; 'I' for Inactive)
REMARK    1  A    between atoms: C_7  and  C_8
REMARK    2  A    between atoms: C_9  and  C_10
REMARK                            x       y       z     vdW  Elec       q    Type
REMARK                         _______ _______ _______ _____ _____    ______ ____
ROOT
ATOM      1  C   UNL     1      -0.748  29.325  62.608  0.00  0.00    +0.000 C 
ATOM      2  C   UNL     1      -0.119  30.355  62.038  0.00  0.00    +0.000 C 
ENDROOT
BRANCH   1   9
ATOM      3  O   UNL     1      -3.546  29.131  66.571  0.00  0.00    +0.000 OA
ATOM      4  C   UNL     1      -2.281  29.271  65.994  0.00  0.00    +0.000 A 
ATOM      5  C   UNL     1      -1.129  29.317  66.749  0.00  0.00    +0.000 A 
ATOM      6  C   UNL     1       0.096  29.038  66.179  0.00  0.00    +0.000 A 
ATOM      7  O   UNL     1       1.267  28.974  66.931  0.00  0.00    +0.000 OA
ATOM      8  C   UNL     1       0.192  29.081  64.813  0.00  0.00    +0.000 A 
ATOM      9  C   UNL     1      -0.920  29.450  64.062  0.00  0.00    +0.000 A 
ATOM     10  C   UNL     1      -2.146  29.110  64.621  0.00  0.00    +0.000 A 
ENDBRANCH   1   9
BRANCH   2  11
ATOM     11  C   UNL     1      -0.791  31.645  62.247  0.00  0.00    +0.000 A 
ATOM     12  C   UNL     1      -2.109  31.861  61.907  0.00  0.00    +0.000 A 
ATOM     13  C   UNL     1      -2.808  32.830  62.617  0.00  0.00    +0.000 A 
ATOM     14  C   UNL     1      -2.217  33.552  63.646  0.00  0.00    +0.000 A 
ATOM     15  O   UNL     1      -3.091  34.081  64.592  0.00  0.00    +0.000 OA
ATOM     16  C   UNL     1      -0.854  33.480  63.827  0.00  0.00    +0.000 A 
ATOM     17  O   UNL     1      -0.304  34.162  64.889  0.00  0.00    +0.000 OA
ATOM     18  C   UNL     1      -0.155  32.610  63.018  0.00  0.00    +0.000 A 
ENDBRANCH   2  11
TORSDOF 2
ENDMDL
MODEL 4
REMARK VINA RESULT:       0.0     23.018     24.733
REMARK  Name = 
REMARK  2 active torsions:
REMARK  status: ('A' for Active; 'I' for Inactive)
REMARK    1  A    between atoms: C_7  and  C_8
REMARK    2  A    between atoms: C_9  and  C_10
REMARK                            x       y       z     vdW  Elec       q    Type
REMARK                         _______ _______ _______ _____ _____    ______ ____
ROOT
ATOM      1  C   UNL     1      15.291   6.057  64.860  0.00  0.00    +0.000 C 
ATOM      2  C   UNL     1      15.168   6.100  66.189  0.00  0.00    +0.000 C 
ENDROOT
BRANCH   1   9
ATOM      3  O   UNL     1      19.251   6.041  62.052  0.00  0.00    +0.000 OA
ATOM      4  C   UNL     1      18.380   6.726  62.904  0.00  0.00    +0.000 A 
ATOM      5  C   UNL     1      18.481   8.082  63.126  0.00  0.00    +0.000 A 
ATOM      6  C   UNL     1      17.406   8.797  63.610  0.00  0.00    +0.000 A 
ATOM      7  O   UNL     1      17.438  10.183  63.750  0.00  0.00    +0.000 OA
ATOM      8  C   UNL     1      16.388   8.099  64.204  0.00  0.00    +0.000 A 
ATOM      9  C   UNL     1      16.496   6.719  64.342  0.00  0.00    +0.000 A 
ATOM     10  C   UNL     1      17.230   6.084  63.347  0.00  0.00    +0.000 A 
ENDBRANCH   1   9
BRANCH   2  11
ATOM     11  C   UNL     1      16.295   5.488  66.906  0.00  0.00    +0.000 A 
ATOM     12  C   UNL     1      16.708   4.193  66.677  0.00  0.00    +0.000 A 
ATOM     13  C   UNL     1      18.040   3.887  66.925  0.00  0.00    +0.000 A 
ATOM     14  C   UNL     1      18.940   4.845  67.375  0.00  0.00    +0.000 A 
ATOM     15  O   UNL     1      20.280   4.592  67.098  0.00  0.00    +0.000 OA
ATOM     16  C   UNL     1      18.469   6.066  67.803  0.00  0.00    +0.000 A 
ATOM     17  O   UNL     1      19.388   7.015  68.190  0.00  0.00    +0.000 OA
ATOM     18  C   UNL     1      17.118   6.303  67.674  0.00  0.00    +0.000 A 
ENDBRANCH   2  11
TORSDOF 2
ENDMDL
MODEL 5
REMARK VINA RESULT:       0.0      9.350     11.112
REMARK  Name = 
REMARK  2 active torsions:
REMARK  status: ('A' for Active; 'I' for Inactive)
REMARK    1  A    between atoms: C_7  and  C_8
REMARK    2  A    between atoms: C_9  and  C_10
REMARK                            x       y       z     vdW  Elec       q    Type
REMARK                         _______ _______ _______ _____ _____    ______ ____
ROOT
ATOM      1  C   UNL     1       6.251  15.255  76.936  0.00  0.00    +0.000 C 
ATOM      2  C   UNL     1       7.123  14.280  77.200  0.00  0.00    +0.000 C 
ENDROOT
BRANCH   1   9
ATOM      3  O   UNL     1       6.545  19.011  73.874  0.00  0.00    +0.000 OA
ATOM      4  C   UNL     1       6.944  18.389  75.060  0.00  0.00    +0.000 A 
ATOM      5  C   UNL     1       7.754  19.013  75.983  0.00  0.00    +0.000 A 
ATOM      6  C   UNL     1       7.795  18.577  77.291  0.00  0.00    +0.000 A 
ATOM      7  O   UNL     1       8.522  19.245  78.274  0.00  0.00    +0.000 OA
ATOM      8  C   UNL     1       7.321  17.321  77.563  0.00  0.00    +0.000 A 
ATOM      9  C   UNL     1       6.868  16.521  76.518  0.00  0.00    +0.000 A 
ATOM     10  C   UNL     1       6.314  17.212  75.446  0.00  0.00    +0.000 A 
ENDBRANCH   1   9
BRANCH   2  11
ATOM     11  C   UNL     1       7.990  13.940  76.064  0.00  0.00    +0.000 A 
ATOM     12  C   UNL     1       7.494  13.584  74.829  0.00  0.00    +0.000 A 
ATOM     13  C   UNL     1       8.289  13.836  73.717  0.00  0.00    +0.000 A 
ATOM     14  C   UNL     1       9.536  14.438  73.829  0.00  0.00    +0.000 A 
ATOM     15  O   UNL     1       9.994  15.095  72.692  0.00  0.00    +0.000 OA
ATOM     16  C   UNL     1      10.105  14.586  75.075  0.00  0.00    +0.000 A 
ATOM     17  O   UNL     1      11.315  15.237  75.161  0.00  0.00    +0.000 OA
ATOM     18  C   UNL     1       9.351  14.204  76.163  0.00  0.00    +0.000 A 
ENDBRANCH   2  11
TORSDOF 2
ENDMDL
MODEL 6
REMARK VINA RESULT:       0.0     25.324     27.344
REMARK  Name = 
REMARK  2 active torsions:
REMARK  status: ('A' for Active; 'I' for Inactive)
REMARK    1  A    between atoms: C_7  and  C_8
REMARK    2  A    between atoms: C_9  and  C_10
REMARK                            x       y       z     vdW  Elec       q    Type
REMARK                         _______ _______ _______ _____ _____    ______ ____
ROOT
ATOM      1  C   UNL     1      -1.228   1.419  51.541  0.00  0.00    +0.000 C 
ATOM      2  C   UNL     1      -0.066   2.032  51.304  0.00  0.00    +0.000 C 
ENDROOT
BRANCH   1   9
ATOM      3  O   UNL     1      -4.699   2.383  54.796  0.00  0.00    +0.000 OA
ATOM      4  C   UNL     1      -3.417   1.909  54.505  0.00  0.00    +0.000 A 
ATOM      5  C   UNL     1      -2.617   1.318  55.460  0.00  0.00    +0.000 A 
ATOM      6  C   UNL     1      -1.568   0.502  55.089  0.00  0.00    +0.000 A 
ATOM      7  O   UNL     1      -0.804  -0.193  56.023  0.00  0.00    +0.000 OA
ATOM      8  C   UNL     1      -1.116   0.585  53.799  0.00  0.00    +0.000 A 
ATOM      9  C   UNL     1      -1.688   1.513  52.934  0.00  0.00    +0.000 A 
ATOM     10  C   UNL     1      -3.027   1.797  53.177  0.00  0.00    +0.000 A 
ENDBRANCH   1   9
BRANCH   2  11
ATOM     11  C   UNL     1      -0.080   3.466  51.619  0.00  0.00    +0.000 A 
ATOM     12  C   UNL     1      -1.003   4.338  51.083  0.00  0.00    +0.000 A 
ATOM     13  C   UNL     1      -1.320   5.475  51.817  0.00  0.00    +0.000 A 
ATOM     14  C   UNL     1      -0.745   5.730  53.056  0.00  0.00    +0.000 A 
ATOM     15  O   UNL     1      -1.476   6.559  53.901  0.00  0.00    +0.000 OA
ATOM     16  C   UNL     1       0.325   4.971  53.474  0.00  0.00    +0.000 A 
ATOM     17  O   UNL     1       0.837   5.209  54.729  0.00  0.00    +0.000 OA
ATOM     18  C   UNL     1       0.714   3.926  52.663  0.00  0.00    +0.000 A 
ENDBRANCH   2  11
TORSDOF 2
ENDMDL
MODEL 7
REMARK VINA RESULT:       0.0     12.153     14.251
REMARK  Name = 
REMARK  2 active torsions:
REMARK  status: ('A' for Active; 'I' for Inactive)
REMARK    1  A    between atoms: C_7  and  C_8
REMARK    2  A    between atoms: C_9  and  C_10
REMARK                            x       y       z     vdW  Elec       q    Type
REMARK                         _______ _______ _______ _____ _____    ______ ____
ROOT
ATOM      1  C   UNL     1       2.600  12.045  78.275  0.00  0.00    +0.000 C 
ATOM      2  C   UNL     1       2.369  10.730  78.282  0.00  0.00    +0.000 C 
ENDROOT
BRANCH   1   9
ATOM      3  O   UNL     1       6.763  14.519  77.941  0.00  0.00    +0.000 OA
ATOM      4  C   UNL     1       5.897  13.710  78.683  0.00  0.00    +0.000 A 
ATOM      5  C   UNL     1       6.119  13.419  80.011  0.00  0.00    +0.000 A 
ATOM      6  C   UNL     1       5.085  12.991  80.818  0.00  0.00    +0.000 A 
ATOM      7  O   UNL     1       5.248  12.786  82.186  0.00  0.00    +0.000 OA
ATOM      8  C   UNL     1       3.953  12.515  80.211  0.00  0.00    +0.000 A 
ATOM      9  C   UNL     1       3.907  12.432  78.823  0.00  0.00    +0.000 A 
ATOM     10  C   UNL     1       4.654  13.393  78.151  0.00  0.00    +0.000 A 
ENDBRANCH   1   9
BRANCH   2  11
ATOM     11  C   UNL     1       3.360   9.953  77.527  0.00  0.00    +0.000 A 
ATOM     12  C   UNL     1       3.655  10.206  76.204  0.00  0.00    +0.000 A 
ATOM     13  C   UNL     1       4.923   9.865  75.749  0.00  0.00    +0.000 A 
ATOM     14  C   UNL     1       5.875   9.299  76.588  0.00  0.00    +0.000 A 
ATOM     15  O   UNL     1       7.200   9.477  76.205  0.00  0.00    +0.000 OA
ATOM     16  C   UNL     1       5.497   8.855  77.836  0.00  0.00    +0.000 A 
ATOM     17  O   UNL     1       6.473   8.352  78.667  0.00  0.00    +0.000 OA
ATOM     18  C   UNL     1       4.194   9.083  78.220  0.00  0.00    +0.000 A 
ENDBRANCH   2  11
TORSDOF 2
ENDMDL
MODEL 8
REMARK VINA RESULT:       0.0     12.280     14.126
REMARK  Name = 
REMARK  2 active torsions:
REMARK  status: ('A' for Active; 'I' for Inactive)
REMARK    1  A    between atoms: C_7  and  C_8
REMARK    2  A    between atoms: C_9  and  C_10
REMARK                            x       y       z     vdW  Elec       q    Type
REMARK                         _______ _______ _______ _____ _____    ______ ____
ROOT
ATOM      1  C   UNL     1      14.367  21.773  79.311  0.00  0.00    +0.000 C 
ATOM      2  C   UNL     1      13.759  22.394  78.298  0.00  0.00    +0.000 C 
ENDROOT
BRANCH   1   9
ATOM      3  O   UNL     1      12.534  19.636  83.265  0.00  0.00    +0.000 OA
ATOM      4  C   UNL     1      12.827  20.801  82.551  0.00  0.00    +0.000 A 
ATOM      5  C   UNL     1      12.654  22.058  83.089  0.00  0.00    +0.000 A 
ATOM      6  C   UNL     1      13.318  23.145  82.560  0.00  0.00    +0.000 A 
ATOM      7  O   UNL     1      13.248  24.410  83.139  0.00  0.00    +0.000 OA
ATOM      8  C   UNL     1      13.842  23.026  81.300  0.00  0.00    +0.000 A 
ATOM      9  C   UNL     1      13.644  21.847  80.588  0.00  0.00    +0.000 A 
ATOM     10  C   UNL     1      13.545  20.699  81.365  0.00  0.00    +0.000 A 
ENDBRANCH   1   9
BRANCH   2  11
ATOM     11  C   UNL     1      12.410  21.885  78.018  0.00  0.00    +0.000 A 
ATOM     12  C   UNL     1      12.154  20.554  77.762  0.00  0.00    +0.000 A 
ATOM     13  C   UNL     1      10.890  20.069  78.072  0.00  0.00    +0.000 A 
ATOM     14  C   UNL     1       9.912  20.879  78.635  0.00  0.00    +0.000 A 
ATOM     15  O   UNL     1       8.924  20.220  79.360  0.00  0.00    +0.000 OA
ATOM     16  C   UNL     1      10.108  22.242  78.681  0.00  0.00    +0.000 A 
ATOM     17  O   UNL     1       9.147  23.014  79.295  0.00  0.00    +0.000 OA
ATOM     18  C   UNL     1      11.322  22.721  78.241  0.00  0.00    +0.000 A 
ENDBRANCH   2  11
TORSDOF 2
ENDMDL
MODEL 9
REMARK VINA RESULT:       0.0     18.107     19.887
REMARK  Name = 
REMARK  2 active torsions:
REMARK  status: ('A' for Active; 'I' for Inactive)
REMARK    1  A    between atoms: C_7  and  C_8
REMARK    2  A    between atoms: C_9  and  C_10
REMARK                            x       y       z     vdW  Elec       q    Type
REMARK                         _______ _______ _______ _____ _____    ______ ____
ROOT
ATOM      1  C   UNL     1      14.519   9.423  78.800  0.00  0.00    +0.000 C 
ATOM      2  C   UNL     1      13.965  10.623  78.615  0.00  0.00    +0.000 C 
ENDROOT
BRANCH   1   9
ATOM      3  O   UNL     1      16.697   6.432  75.657  0.00  0.00    +0.000 OA
ATOM      4  C   UNL     1      15.530   7.025  76.146  0.00  0.00    +0.000 A 
ATOM      5  C   UNL     1      14.277   6.663  75.699  0.00  0.00    +0.000 A 
ATOM      6  C   UNL     1      13.156   6.934  76.456  0.00  0.00    +0.000 A 
ATOM      7  O   UNL     1      11.888   6.493  76.087  0.00  0.00    +0.000 OA
ATOM      8  C   UNL     1      13.265   7.872  77.448  0.00  0.00    +0.000 A 
ATOM      9  C   UNL     1      14.469   8.547  77.621  0.00  0.00    +0.000 A 
ATOM     10  C   UNL     1      15.605   7.819  77.283  0.00  0.00    +0.000 A 
ENDBRANCH   1   9
BRANCH   2  11
ATOM     11  C   UNL     1      14.575  11.394  77.524  0.00  0.00    +0.000 A 
ATOM     12  C   UNL     1      15.925  11.666  77.469  0.00  0.00    +0.000 A 
ATOM     13  C   UNL     1      16.494  11.864  76.217  0.00  0.00    +0.000 A 
ATOM     14  C   UNL     1      15.744  11.779  75.050  0.00  0.00    +0.000 A 
ATOM     15  O   UNL     1      16.457  11.478  73.894  0.00  0.00    +0.000 OA
ATOM     16  C   UNL     1      14.370  11.724  75.133  0.00  0.00    +0.000 A 
ATOM     17  O   UNL     1      13.656  11.583  73.964  0.00  0.00    +0.000 OA
ATOM     18  C   UNL     1      13.815  11.665  76.393  0.00  0.00    +0.000 A 
ENDBRANCH   2  11
TORSDOF 2
ENDMDL
MODEL 10
REMARK VINA RESULT:       0.0     28.055     30.096
REMARK  Name = 
REMARK  2 active torsions:
REMARK  status: ('A' for Active; 'I' for Inactive)
REMARK    1  A    between atoms: C_7  and  C_8
REMARK    2  A    between atoms: C_9  and  C_10
REMARK                            x       y       z     vdW  Elec       q    Type
REMARK                         _______ _______ _______ _____ _____    ______ ____
ROOT
ATOM      1  C   UNL     1      24.983  42.640  65.507  0.00  0.00    +0.000 C 
ATOM      2  C   UNL     1      25.685  42.312  66.594  0.00  0.00    +0.000 C 
ENDROOT
BRANCH   1   9
ATOM      3  O   UNL     1      20.974  40.658  63.621  0.00  0.00    +0.000 OA
ATOM      4  C   UNL     1      22.345  40.589  63.881  0.00  0.00    +0.000 A 
ATOM      5  C   UNL     1      23.140  39.581  63.378  0.00  0.00    +0.000 A 
ATOM      6  C   UNL     1      24.506  39.744  63.287  0.00  0.00    +0.000 A 
ATOM      7  O   UNL     1      25.329  38.791  62.691  0.00  0.00    +0.000 OA
ATOM      8  C   UNL     1      25.083  40.741  64.027  0.00  0.00    +0.000 A 
ATOM      9  C   UNL     1      24.290  41.511  64.872  0.00  0.00    +0.000 A 
ATOM     10  C   UNL     1      22.978  41.688  64.448  0.00  0.00    +0.000 A 
ENDBRANCH   1   9
BRANCH   2  11
ATOM     11  C   UNL     1      24.877  41.698  67.656  0.00  0.00    +0.000 A 
ATOM     12  C   UNL     1      23.757  42.303  68.183  0.00  0.00    +0.000 A 
ATOM     13  C   UNL     1      22.769  41.483  68.714  0.00  0.00    +0.000 A 
ATOM     14  C   UNL     1      22.886  40.098  68.709  0.00  0.00    +0.000 A 
ATOM     15  O   UNL     1      21.690  39.390  68.769  0.00  0.00    +0.000 OA
ATOM     16  C   UNL     1      24.095  39.523  68.381  0.00  0.00    +0.000 A 
ATOM     17  O   UNL     1      24.165  38.149  68.329  0.00  0.00    +0.000 OA
ATOM     18  C   UNL     1      25.109  40.368  67.984  0.00  0.00    +0.000 A 
ENDBRANCH   2  11
TORSDOF 2
ENDMDL
