MODEL 1
REMARK VINA RESULT:       0.0      0.000      0.000
REMARK  Name = 
REMARK  2 active torsions:
REMARK  status: ('A' for Active; 'I' for Inactive)
REMARK    1  A    between atoms: C_5  and  C_6
REMARK    2  A    between atoms: C_7  and  C_8
REMARK                            x       y       z     vdW  Elec       q    Type
REMARK                         _______ _______ _______ _____ _____    ______ ____
ROOT
ATOM      1  C   UNL     1       9.383  28.507  75.892  0.00  0.00    +0.000 C 
ATOM      2  C   UNL     1      10.483  29.151  75.588  0.00  0.00    +0.000 C 
ENDROOT
BRANCH   2   3
ATOM      3  C   UNL     1      10.506  30.447  74.896  0.00  0.00    +0.000 A 
ATOM      4  C   UNL     1      11.169  31.540  75.441  0.00  0.00    +0.000 A 
ATOM      5  C   UNL     1      10.903  32.792  74.905  0.00  0.00    +0.000 A 
ATOM      6  O   UNL     1      11.706  33.897  75.198  0.00  0.00    +0.000 OA
ATOM      7  C   UNL     1      10.025  32.958  73.842  0.00  0.00    +0.000 A 
ATOM      8  C   UNL     1       9.311  31.863  73.434  0.00  0.00    +0.000 A 
ATOM      9  O   UNL     1       8.179  32.051  72.641  0.00  0.00    +0.000 OA
ATOM     10  C   UNL     1       9.867  30.626  73.675  0.00  0.00    +0.000 A 
ENDBRANCH   2   3
BRANCH   1  15
ATOM     11  O   UNL     1       8.840  23.343  73.772  0.00  0.00    +0.000 OA
ATOM     12  C   UNL     1       9.100  24.560  74.389  0.00  0.00    +0.000 A 
ATOM     13  C   UNL     1       9.164  25.685  73.578  0.00  0.00    +0.000 A 
ATOM     14  C   UNL     1       8.817  26.938  74.065  0.00  0.00    +0.000 A 
ATOM     15  C   UNL     1       9.054  27.158  75.416  0.00  0.00    +0.000 A 
ATOM     16  C   UNL     1       8.905  26.080  76.245  0.00  0.00    +0.000 A 
ATOM     17  C   UNL     1       8.787  24.799  75.721  0.00  0.00    +0.000 A 
ENDBRANCH   1  15
TORSDOF 2
ENDMDL
MODEL 2
REMARK VINA RESULT:       0.0      6.054      7.534
REMARK  Name = 
REMARK  2 active torsions:
REMARK  status: ('A' for Active; 'I' for Inactive)
REMARK    1  A    between atoms: C_5  and  C_6
REMARK    2  A    between atoms: C_7  and  C_8
REMARK                            x       y       z     vdW  Elec       q    Type
REMARK                         _______ _______ _______ _____ _____    ______ ____
ROOT
ATOM      1  C   UNL     1       3.885  24.391  74.654  0.00  0.00    +0.000 C 
ATOM      2  C   UNL     1       4.578  24.700  73.586  0.00  0.00    +0.000 C 
ENDROOT
BRANCH   2   3
ATOM      3  C   UNL     1       5.480  25.857  73.504  0.00  0.00    +0.000 A 
ATOM      4  C   UNL     1       6.811  25.705  73.136  0.00  0.00    +0.000 A 
ATOM      5  C   UNL     1       7.673  26.768  73.370  0.00  0.00    +0.000 A 
ATOM      6  O   UNL     1       8.947  26.812  72.800  0.00  0.00    +0.000 OA
ATOM      7  C   UNL     1       7.227  27.958  73.928  0.00  0.00    +0.000 A 
ATOM      8  C   UNL     1       5.935  28.001  74.382  0.00  0.00    +0.000 A 
ATOM      9  O   UNL     1       5.560  29.017  75.260  0.00  0.00    +0.000 OA
ATOM     10  C   UNL     1       5.034  27.143  73.791  0.00  0.00    +0.000 A 
ENDBRANCH   2   3
BRANCH   1  15
ATOM     11  O   UNL     1      -1.686  24.162  74.045  0.00  0.00    +0.000 OA
ATOM     12  C   UNL     1      -0.299  24.085  74.096  0.00  0.00    +0.000 A 
ATOM     13  C   UNL     1       0.411  25.265  73.924  0.00  0.00    +0.000 A 
ATOM     14  C   UNL     1       1.652  25.446  74.521  0.00  0.00    +0.000 A 
ATOM     15  C   UNL     1       2.421  24.301  74.695  0.00  0.00    +0.000 A 
ATOM     16  C   UNL     1       1.741  23.144  74.958  0.00  0.00    +0.000 A 
ATOM     17  C   UNL     1       0.363  23.082  74.792  0.00  0.00    +0.000 A 
ENDBRANCH   1  15
TORSDOF 2
ENDMDL
MODEL 3
REMARK VINA RESULT:       0.0     19.509     23.459
REMARK  Name = 
REMARK  2 active torsions:
REMARK  status: ('A' for Active; 'I' for Inactive)
REMARK    1  A    between atoms: C_5  and  C_6
REMARK    2  A    between atoms: C_7  and  C_8
REMARK                            x       y       z     vdW  Elec       q    Type
REMARK                         _______ _______ _______ _____ _____    ______ ____
ROOT
ATOM      1  C   UNL     1       3.080   6.322  75.483  0.00  0.00    +0.000 C 
ATOM      2  C   UNL     1       2.316   7.333  75.817  0.00  0.00    +0.000 C 
ENDROOT
BRANCH   2   3
ATOM      3  C   UNL     1       2.767   8.459  76.646  0.00  0.00    +0.000 A 
ATOM      4  C   UNL     1       2.647   9.770  76.202  0.00  0.00    +0.000 A 
ATOM      5  C   UNL     1       3.356  10.751  76.882  0.00  0.00    +0.000 A 
ATOM      6  O   UNL     1       3.095  12.109  76.684  0.00  0.00    +0.000 OA
ATOM      7  C   UNL     1       4.140  10.449  77.986  0.00  0.00    +0.000 A 
ATOM      8  C   UNL     1       4.316   9.127  78.297  0.00  0.00    +0.000 A 
ATOM      9  O   UNL     1       5.361   8.764  79.145  0.00  0.00    +0.000 OA
ATOM     10  C   UNL     1       3.327   8.253  77.902  0.00  0.00    +0.000 A 
ENDBRANCH   2   3
BRANCH   1  15
ATOM     11  O   UNL     1       1.318   1.230  77.038  0.00  0.00    +0.000 OA
ATOM     12  C   UNL     1       1.623   2.495  76.551  0.00  0.00    +0.000 A 
ATOM     13  C   UNL     1       1.957   3.472  77.478  0.00  0.00    +0.000 A 
ATOM     14  C   UNL     1       2.819   4.508  77.145  0.00  0.00    +0.000 A 
ATOM     15  C   UNL     1       2.796   4.922  75.818  0.00  0.00    +0.000 A 
ATOM     16  C   UNL     1       2.560   3.954  74.882  0.00  0.00    +0.000 A 
ATOM     17  C   UNL     1       2.107   2.697  75.264  0.00  0.00    +0.000 A 
ENDBRANCH   1  15
TORSDOF 2
ENDMDL
MODEL 4
REMARK VINA RESULT:       0.0     24.092     25.857
REMARK  Name = 
REMARK  2 active torsions:
REMARK  status: ('A' for Active; 'I' for Inactive)
REMARK    1  A    between atoms: C_5  and  C_6
REMARK    2  A    between atoms: C_7  and  C_8
REMARK                            x       y       z     vdW  Elec       q    Type
REMARK                         _______ _______ _______ _____ _____    ______ ____
ROOT
ATOM      1  C   UNL     1       9.090  23.917  49.208  0.00  0.00    +0.000 C 
ATOM      2  C   UNL     1       9.327  23.936  50.497  0.00  0.00    +0.000 C 
ENDROOT
BRANCH   2   3
ATOM      3  C   UNL     1      10.554  23.408  51.109  0.00  0.00    +0.000 A 
ATOM      4  C   UNL     1      11.342  24.199  51.936  0.00  0.00    +0.000 A 
ATOM      5  C   UNL     1      12.622  23.753  52.232  0.00  0.00    +0.000 A 
ATOM      6  O   UNL     1      13.379  24.333  53.253  0.00  0.00    +0.000 OA
ATOM      7  C   UNL     1      13.103  22.545  51.745  0.00  0.00    +0.000 A 
ATOM      8  C   UNL     1      12.328  21.874  50.837  0.00  0.00    +0.000 A 
ATOM      9  O   UNL     1      12.909  20.873  50.060  0.00  0.00    +0.000 OA
ATOM     10  C   UNL     1      10.970  22.100  50.883  0.00  0.00    +0.000 A 
ENDBRANCH   2   3
BRANCH   1  15
ATOM     11  O   UNL     1       4.474  21.195  47.553  0.00  0.00    +0.000 OA
ATOM     12  C   UNL     1       5.514  21.980  48.035  0.00  0.00    +0.000 A 
ATOM     13  C   UNL     1       6.569  21.327  48.659  0.00  0.00    +0.000 A 
ATOM     14  C   UNL     1       7.853  21.854  48.629  0.00  0.00    +0.000 A 
ATOM     15  C   UNL     1       7.946  23.240  48.586  0.00  0.00    +0.000 A 
ATOM     16  C   UNL     1       6.964  23.896  47.895  0.00  0.00    +0.000 A 
ATOM     17  C   UNL     1       5.813  23.227  47.500  0.00  0.00    +0.000 A 
ENDBRANCH   1  15
TORSDOF 2
ENDMDL
MODEL 5
REMARK VINA RESULT:       0.0     29.376     31.940
REMARK  Name = 
REMARK  2 active torsions:
REMARK  status: ('A' for Active; 'I' for Inactive)
REMARK    1  A    between atoms: C_5  and  C_6
REMARK    2  A    between atoms: C_7  and  C_8
REMARK                            x       y       z     vdW  Elec       q    Type
REMARK                         _______ _______ _______ _____ _____    ______ ____
ROOT
ATOM      1  C   UNL     1     -12.569   8.774  62.168  0.00  0.00    +0.000 C 
ATOM      2  C   UNL     1     -11.743   9.684  62.622  0.00  0.00    +0.000 C 
ENDROOT
BRANCH   2   3
ATOM      3  C   UNL     1     -12.019  11.127  62.589  0.00  0.00    +0.000 A 
ATOM      4  C   UNL     1     -11.966  11.895  63.746  0.00  0.00    +0.000 A 
ATOM      5  C   UNL     1     -12.524  13.165  63.705  0.00  0.00    +0.000 A 
ATOM      6  O   UNL     1     -12.286  14.099  64.717  0.00  0.00    +0.000 OA
ATOM      7  C   UNL     1     -13.095  13.673  62.546  0.00  0.00    +0.000 A 
ATOM      8  C   UNL     1     -13.228  12.824  61.480  0.00  0.00    +0.000 A 
ATOM      9  O   UNL     1     -14.103  13.164  60.449  0.00  0.00    +0.000 OA
ATOM     10  C   UNL     1     -12.340  11.774  61.401  0.00  0.00    +0.000 A 
ENDBRANCH   2   3
BRANCH   1  15
ATOM     11  O   UNL     1     -10.617   5.421  58.118  0.00  0.00    +0.000 OA
ATOM     12  C   UNL     1     -10.989   6.177  59.222  0.00  0.00    +0.000 A 
ATOM     13  C   UNL     1     -11.134   7.546  59.038  0.00  0.00    +0.000 A 
ATOM     14  C   UNL     1     -12.029   8.279  59.805  0.00  0.00    +0.000 A 
ATOM     15  C   UNL     1     -12.246   7.821  61.099  0.00  0.00    +0.000 A 
ATOM     16  C   UNL     1     -12.199   6.467  61.283  0.00  0.00    +0.000 A 
ATOM     17  C   UNL     1     -11.700   5.637  60.287  0.00  0.00    +0.000 A 
ENDBRANCH   1  15
TORSDOF 2
ENDMDL
MODEL 6
REMARK VINA RESULT:       0.0      8.597     11.436
REMARK  Name = 
REMARK  2 active torsions:
REMARK  status: ('A' for Active; 'I' for Inactive)
REMARK    1  A    between atoms: C_5  and  C_6
REMARK    2  A    between atoms: C_7  and  C_8
REMARK                            x       y       z     vdW  Elec       q    Type
REMARK                         _______ _______ _______ _____ _____    ______ ____
ROOT
ATOM      1  C   UNL     1      -0.113  27.673  74.164  0.00  0.00    +0.000 C 
ATOM      2  C   UNL     1      -0.539  27.093  73.069  0.00  0.00    +0.000 C 
ENDROOT
BRANCH   2   3
ATOM      3  C   UNL     1       0.162  25.985  72.406  0.00  0.00    +0.000 A 
ATOM      4  C   UNL     1      -0.485  24.785  72.136  0.00  0.00    +0.000 A 
ATOM      5  C   UNL     1       0.297  23.691  71.794  0.00  0.00    +0.000 A 
ATOM      6  O   UNL     1      -0.266  22.533  71.251  0.00  0.00    +0.000 OA
ATOM      7  C   UNL     1       1.678  23.784  71.697  0.00  0.00    +0.000 A 
ATOM      8  C   UNL     1       2.264  24.956  72.096  0.00  0.00    +0.000 A 
ATOM      9  O   UNL     1       3.632  24.973  72.361  0.00  0.00    +0.000 OA
ATOM     10  C   UNL     1       1.495  26.097  72.027  0.00  0.00    +0.000 A 
ENDBRANCH   2   3
BRANCH   1  15
ATOM     11  O   UNL     1       0.847  33.191  73.861  0.00  0.00    +0.000 OA
ATOM     12  C   UNL     1       0.447  31.861  73.916  0.00  0.00    +0.000 A 
ATOM     13  C   UNL     1       1.175  30.946  73.166  0.00  0.00    +0.000 A 
ATOM     14  C   UNL     1       1.289  29.623  73.570  0.00  0.00    +0.000 A 
ATOM     15  C   UNL     1       0.210  29.101  74.274  0.00  0.00    +0.000 A 
ATOM     16  C   UNL     1      -0.463  29.968  75.090  0.00  0.00    +0.000 A 
ATOM     17  C   UNL     1      -0.237  31.336  75.004  0.00  0.00    +0.000 A 
ENDBRANCH   1  15
TORSDOF 2
ENDMDL
MODEL 7
REMARK VINA RESULT:       0.0      9.923     11.702
REMARK  Name = 
REMARK  2 active torsions:
REMARK  status: ('A' for Active; 'I' for Inactive)
REMARK    1  A    between atoms: C_5  and  C_6
REMARK    2  A    between atoms: C_7  and  C_8
REMARK                            x       y       z     vdW  Elec       q    Type
REMARK                         _______ _______ _______ _____ _____    ______ ____
ROOT
ATOM      1  C   UNL     1       0.029  27.122  71.621  0.00  0.00    +0.000 C 
ATOM      2  C   UNL     1      -0.428  28.009  70.773  0.00  0.00    +0.000 C 
ENDROOT
BRANCH   2   3
ATOM      3  C   UNL     1      -1.132  27.663  69.530  0.00  0.00    +0.000 A 
ATOM      4  C   UNL     1      -2.393  28.176  69.252  0.00  0.00    +0.000 A 
ATOM      5  C   UNL     1      -3.123  27.585  68.231  0.00  0.00    +0.000 A 
ATOM      6  O   UNL     1      -4.267  28.190  67.706  0.00  0.00    +0.000 OA
ATOM      7  C   UNL     1      -2.610  26.532  67.485  0.00  0.00    +0.000 A 
ATOM      8  C   UNL     1      -1.418  25.992  67.887  0.00  0.00    +0.000 A 
ATOM      9  O   UNL     1      -1.051  24.733  67.414  0.00  0.00    +0.000 OA
ATOM     10  C   UNL     1      -0.562  26.813  68.589  0.00  0.00    +0.000 A 
ENDBRANCH   2   3
BRANCH   1  15
ATOM     11  O   UNL     1       5.535  27.275  72.677  0.00  0.00    +0.000 OA
ATOM     12  C   UNL     1       4.163  27.385  72.493  0.00  0.00    +0.000 A 
ATOM     13  C   UNL     1       3.664  27.094  71.230  0.00  0.00    +0.000 A 
ATOM     14  C   UNL     1       2.381  26.589  71.068  0.00  0.00    +0.000 A 
ATOM     15  C   UNL     1       1.439  26.994  72.007  0.00  0.00    +0.000 A 
ATOM     16  C   UNL     1       1.896  27.196  73.280  0.00  0.00    +0.000 A 
ATOM     17  C   UNL     1       3.260  27.251  73.540  0.00  0.00    +0.000 A 
ENDBRANCH   1  15
TORSDOF 2
ENDMDL
MODEL 8
REMARK VINA RESULT:       0.0     29.946     32.424
REMARK  Name = 
REMARK  2 active torsions:
REMARK  status: ('A' for Active; 'I' for Inactive)
REMARK    1  A    between atoms: C_5  and  C_6
REMARK    2  A    between atoms: C_7  and  C_8
REMARK                            x       y       z     vdW  Elec       q    Type
REMARK                         _______ _______ _______ _____ _____    ______ ____
ROOT
ATOM      1  C   UNL     1      -9.232  15.795  50.937  0.00  0.00    +0.000 C 
ATOM      2  C   UNL     1      -8.671  16.844  51.486  0.00  0.00    +0.000 C 
ENDROOT
BRANCH   2   3
ATOM      3  C   UNL     1      -7.912  16.800  52.743  0.00  0.00    +0.000 A 
ATOM      4  C   UNL     1      -6.608  17.276  52.812  0.00  0.00    +0.000 A 
ATOM      5  C   UNL     1      -5.851  16.934  53.924  0.00  0.00    +0.000 A 
ATOM      6  O   UNL     1      -4.643  17.574  54.209  0.00  0.00    +0.000 OA
ATOM      7  C   UNL     1      -6.376  16.164  54.953  0.00  0.00    +0.000 A 
ATOM      8  C   UNL     1      -7.621  15.623  54.769  0.00  0.00    +0.000 A 
ATOM      9  O   UNL     1      -8.030  14.572  55.588  0.00  0.00    +0.000 OA
ATOM     10  C   UNL     1      -8.470  16.282  53.907  0.00  0.00    +0.000 A 
ENDBRANCH   2   3
BRANCH   1  15
ATOM     11  O   UNL     1     -14.775  16.058  50.126  0.00  0.00    +0.000 OA
ATOM     12  C   UNL     1     -13.390  16.113  50.211  0.00  0.00    +0.000 A 
ATOM     13  C   UNL     1     -12.830  16.141  51.482  0.00  0.00    +0.000 A 
ATOM     14  C   UNL     1     -11.571  15.607  51.720  0.00  0.00    +0.000 A 
ATOM     15  C   UNL     1     -10.669  15.670  50.665  0.00  0.00    +0.000 A 
ATOM     16  C   UNL     1     -11.192  15.551  49.407  0.00  0.00    +0.000 A 
ATOM     17  C   UNL     1     -12.564  15.632  49.203  0.00  0.00    +0.000 A 
ENDBRANCH   1  15
TORSDOF 2
ENDMDL
MODEL 9
REMARK VINA RESULT:       0.0      8.189     10.085
REMARK  Name = 
REMARK  2 active torsions:
REMARK  status: ('A' for Active; 'I' for Inactive)
REMARK    1  A    between atoms: C_5  and  C_6
REMARK    2  A    between atoms: C_7  and  C_8
REMARK                            x       y       z     vdW  Elec       q    Type
REMARK                         _______ _______ _______ _____ _____    ______ ____
ROOT
ATOM      1  C   UNL     1       1.170  24.278  75.823  0.00  0.00    +0.000 C 
ATOM      2  C   UNL     1       1.010  25.285  75.000  0.00  0.00    +0.000 C 
ENDROOT
BRANCH   2   3
ATOM      3  C   UNL     1       1.103  25.167  73.538  0.00  0.00    +0.000 A 
ATOM      4  C   UNL     1       0.065  25.589  72.716  0.00  0.00    +0.000 A 
ATOM      5  C   UNL     1       0.081  25.179  71.391  0.00  0.00    +0.000 A 
ATOM      6  O   UNL     1      -0.757  25.761  70.437  0.00  0.00    +0.000 OA
ATOM      7  C   UNL     1       1.108  24.394  70.883  0.00  0.00    +0.000 A 
ATOM      8  C   UNL     1       2.033  23.909  71.770  0.00  0.00    +0.000 A 
ATOM      9  O   UNL     1       2.847  22.846  71.384  0.00  0.00    +0.000 OA
ATOM     10  C   UNL     1       2.231  24.630  72.927  0.00  0.00    +0.000 A 
ENDBRANCH   2   3
BRANCH   1  15
ATOM     11  O   UNL     1       5.260  24.783  79.628  0.00  0.00    +0.000 OA
ATOM     12  C   UNL     1       4.170  24.782  78.767  0.00  0.00    +0.000 A 
ATOM     13  C   UNL     1       4.434  24.744  77.404  0.00  0.00    +0.000 A 
ATOM     14  C   UNL     1       3.541  24.154  76.520  0.00  0.00    +0.000 A 
ATOM     15  C   UNL     1       2.197  24.219  76.870  0.00  0.00    +0.000 A 
ATOM     16  C   UNL     1       1.912  24.164  78.207  0.00  0.00    +0.000 A 
ATOM     17  C   UNL     1       2.922  24.306  79.150  0.00  0.00    +0.000 A 
ENDBRANCH   1  15
TORSDOF 2
ENDMDL
MODEL 10
REMARK VINA RESULT:       0.0     27.368     29.054
REMARK  Name = 
REMARK  2 active torsions:
REMARK  status: ('A' for Active; 'I' for Inactive)
REMARK    1  A    between atoms: C_5  and  C_6
REMARK    2  A    between atoms: C_7  and  C_8
REMARK                            x       y       z     vdW  Elec       q    Type
REMARK                         _______ _______ _______ _____ _____    ______ ____
ROOT
ATOM      1  C   UNL     1      -5.176  25.477  49.973  0.00  0.00    +0.000 C 
ATOM      2  C   UNL     1      -4.055  24.859  49.696  0.00  0.00    +0.000 C 
ENDROOT
BRANCH   2   3
ATOM      3  C   UNL     1      -2.784  25.126  50.383  0.00  0.00    +0.000 A 
ATOM      4  C   UNL     1      -2.067  24.102  50.991  0.00  0.00    +0.000 A 
ATOM      5  C   UNL     1      -1.052  24.455  51.870  0.00  0.00    +0.000 A 
ATOM      6  O   UNL     1      -0.115  23.521  52.315  0.00  0.00    +0.000 OA
ATOM      7  C   UNL     1      -0.737  25.784  52.122  0.00  0.00    +0.000 A 
ATOM      8  C   UNL     1      -1.558  26.742  51.591  0.00  0.00    +0.000 A 
ATOM      9  O   UNL     1      -1.505  28.038  52.103  0.00  0.00    +0.000 OA
ATOM     10  C   UNL     1      -2.254  26.410  50.449  0.00  0.00    +0.000 A 
ENDBRANCH   2   3
BRANCH   1  15
ATOM     11  O   UNL     1      -7.605  28.266  45.757  0.00  0.00    +0.000 OA
ATOM     12  C   UNL     1      -7.039  27.435  46.716  0.00  0.00    +0.000 A 
ATOM     13  C   UNL     1      -5.792  27.792  47.211  0.00  0.00    +0.000 A 
ATOM     14  C   UNL     1      -5.413  27.452  48.503  0.00  0.00    +0.000 A 
ATOM     15  C   UNL     1      -5.945  26.272  49.008  0.00  0.00    +0.000 A 
ATOM     16  C   UNL     1      -7.211  25.951  48.603  0.00  0.00    +0.000 A 
ATOM     17  C   UNL     1      -7.807  26.630  47.548  0.00  0.00    +0.000 A 
ENDBRANCH   1  15
TORSDOF 2
ENDMDL
