REMARK  Name = 
REMARK  6 active torsions:
REMARK  status: ('A' for Active; 'I' for Inactive)
REMARK    1  A    between atoms: O_2  and  C_3
REMARK    2  A    between atoms: C_6  and  C_7
REMARK    3  A    between atoms: C_8  and  C_9
REMARK    4  A    between atoms: C_11  and  O_12
REMARK    5  A    between atoms: C_14  and  O_15
REMARK    6  A    between atoms: C_17  and  O_18
REMARK                            x       y       z     vdW  Elec       q    Type
REMARK                         _______ _______ _______ _____ _____    ______ ____
ROOT
ATOM      1  C   UNL     1      -0.901  -0.316  -1.350  0.00  0.00    +0.000 A 
ATOM      2  C   UNL     1      -0.735   0.017  -0.035  0.00  0.00    +0.000 A 
ATOM      3  C   UNL     1      -1.831   0.273   0.775  0.00  0.00    +0.000 A 
ATOM      4  C   UNL     1      -3.077   0.442   0.184  0.00  0.00    +0.000 A 
ATOM      5  C   UNL     1      -3.289  -0.028  -1.092  0.00  0.00    +0.000 A 
ATOM      6  C   UNL     1      -2.206  -0.513  -1.786  0.00  0.00    +0.000 A 
ENDROOT
BRANCH   1   8
ATOM      7  C   UNL     1       1.121  -1.523  -1.468  0.00  0.00    +0.000 C 
ATOM      8  C   UNL     1       0.138  -0.955  -2.168  0.00  0.00    +0.000 C 
BRANCH   7  12
ATOM      9  C   UNL     1       4.359   0.140   0.413  0.00  0.00    +0.000 A 
ATOM     10  C   UNL     1       3.696   0.918  -0.529  0.00  0.00    +0.000 A 
ATOM     11  C   UNL     1       2.582   0.368  -1.152  0.00  0.00    +0.000 A 
ATOM     12  C   UNL     1       1.814  -0.616  -0.541  0.00  0.00    +0.000 A 
ATOM     13  C   UNL     1       2.308  -1.069   0.678  0.00  0.00    +0.000 A 
ATOM     14  C   UNL     1       3.557  -0.724   1.147  0.00  0.00    +0.000 A 
ATOM     15  N   UNL     1       4.140  -1.396   2.266  0.00  0.00    +0.000 NA
BRANCH   9  17
ATOM     16  C   UNL     1       5.557   1.802   1.667  0.00  0.00    +0.000 C 
ATOM     17  O   UNL     1       5.566   0.548   0.990  0.00  0.00    +0.000 OA
ENDBRANCH   9  17
ENDBRANCH   7  12
ENDBRANCH   1   8
BRANCH   3  18
ATOM     18  O   UNL     1      -1.755   0.229   2.164  0.00  0.00    +0.000 OA
ATOM     19  C   UNL     1      -2.758  -0.360   2.975  0.00  0.00    +0.000 C 
ENDBRANCH   3  18
BRANCH   4  20
ATOM     20  O   UNL     1      -4.034   1.153   0.886  0.00  0.00    +0.000 OA
ATOM     21  C   UNL     1      -4.710   2.283   0.371  0.00  0.00    +0.000 C 
ENDBRANCH   4  20
BRANCH   5  22
ATOM     22  O   UNL     1      -4.580  -0.007  -1.606  0.00  0.00    +0.000 OA
ATOM     23  C   UNL     1      -4.962  -0.666  -2.787  0.00  0.00    +0.000 C 
ENDBRANCH   5  22
TORSDOF 6
