REMARK  Name = 
REMARK  2 active torsions:
REMARK  status: ('A' for Active; 'I' for Inactive)
REMARK    1  A    between atoms: C_5  and  C_6
REMARK    2  A    between atoms: C_7  and  C_8
REMARK                            x       y       z     vdW  Elec       q    Type
REMARK                         _______ _______ _______ _____ _____    ______ ____
ROOT
ATOM      1  C   UNL     1       0.499  -1.842  -0.504  0.00  0.00    +0.000 C 
ATOM      2  C   UNL     1      -0.580  -1.547  -1.202  0.00  0.00    +0.000 C 
ENDROOT
BRANCH   1   7
ATOM      3  O   UNL     1       4.543   1.869   0.230  0.00  0.00    +0.000 OA
ATOM      4  C   UNL     1       3.611   0.911  -0.181  0.00  0.00    +0.000 A 
ATOM      5  C   UNL     1       2.390   1.280  -0.719  0.00  0.00    +0.000 A 
ATOM      6  C   UNL     1       1.256   0.538  -0.412  0.00  0.00    +0.000 A 
ATOM      7  C   UNL     1       1.362  -0.771  -0.015  0.00  0.00    +0.000 A 
ATOM      8  C   UNL     1       2.607  -1.177   0.450  0.00  0.00    +0.000 A 
ATOM      9  O   UNL     1       2.911  -2.532   0.610  0.00  0.00    +0.000 OA
ATOM     10  C   UNL     1       3.705  -0.327   0.422  0.00  0.00    +0.000 A 
ENDBRANCH   1   7
BRANCH   2  11
ATOM     11  C   UNL     1      -1.378  -0.421  -0.702  0.00  0.00    +0.000 A 
ATOM     12  C   UNL     1      -2.117   0.345  -1.576  0.00  0.00    +0.000 A 
ATOM     13  C   UNL     1      -3.200   1.113  -1.174  0.00  0.00    +0.000 A 
ATOM     14  O   UNL     1      -3.477   2.361  -1.740  0.00  0.00    +0.000 OA
ATOM     15  C   UNL     1      -3.782   0.739   0.031  0.00  0.00    +0.000 A 
ATOM     16  C   UNL     1      -3.107  -0.039   0.962  0.00  0.00    +0.000 A 
ATOM     17  O   UNL     1      -3.391   0.019   2.328  0.00  0.00    +0.000 OA
ATOM     18  C   UNL     1      -1.854  -0.519   0.601  0.00  0.00    +0.000 A 
ENDBRANCH   2  11
TORSDOF 2
