REMARK  Name = 
REMARK  5 active torsions:
REMARK  status: ('A' for Active; 'I' for Inactive)
REMARK    1  A    between atoms: O_2  and  C_3
REMARK    2  A    between atoms: C_5  and  C_6
REMARK    3  A    between atoms: C_7  and  C_8
REMARK    4  A    between atoms: C_13  and  O_14
REMARK    5  A    between atoms: C_18  and  O_19
REMARK                            x       y       z     vdW  Elec       q    Type
REMARK                         _______ _______ _______ _____ _____    ______ ____
ROOT
ATOM      1  C   UNL     1      -0.471   2.087   0.999  0.00  0.00    +0.000 C 
ATOM      2  C   UNL     1       0.657   1.556   1.472  0.00  0.00    +0.000 C 
ENDROOT
BRANCH   2   3
ATOM      3  C   UNL     1       1.471   0.852   0.470  0.00  0.00    +0.000 A 
ATOM      4  C   UNL     1       2.278   1.649  -0.334  0.00  0.00    +0.000 A 
ATOM      5  C   UNL     1       3.564   1.268  -0.695  0.00  0.00    +0.000 A 
ATOM      6  C   UNL     1       4.144   0.146  -0.116  0.00  0.00    +0.000 A 
ATOM      7  O   UNL     1       5.481   0.157   0.295  0.00  0.00    +0.000 OA
ATOM      8  C   UNL     1       3.242  -0.805   0.345  0.00  0.00    +0.000 A 
ATOM      9  C   UNL     1       1.990  -0.405   0.758  0.00  0.00    +0.000 A 
BRANCH   8  10
ATOM     10  O   UNL     1       3.766  -2.067   0.631  0.00  0.00    +0.000 OA
ATOM     11  C   UNL     1       4.625  -2.681  -0.303  0.00  0.00    +0.000 C 
ENDBRANCH   8  10
ENDBRANCH   2   3
BRANCH   1  14
ATOM     12  C   UNL     1      -2.365  -1.067   0.527  0.00  0.00    +0.000 A 
ATOM     13  C   UNL     1      -1.290  -0.228   0.536  0.00  0.00    +0.000 A 
ATOM     14  C   UNL     1      -1.365   1.140   0.319  0.00  0.00    +0.000 A 
ATOM     15  C   UNL     1      -2.647   1.626   0.081  0.00  0.00    +0.000 A 
ATOM     16  C   UNL     1      -3.762   0.805   0.068  0.00  0.00    +0.000 A 
ATOM     17  C   UNL     1      -3.576  -0.569   0.116  0.00  0.00    +0.000 A 
BRANCH  12  19
ATOM     18  C   UNL     1      -2.381  -3.514   0.208  0.00  0.00    +0.000 C 
ATOM     19  O   UNL     1      -2.312  -2.366   1.044  0.00  0.00    +0.000 OA
ENDBRANCH  12  19
BRANCH  16  20
ATOM     20  O   UNL     1      -5.064   1.314   0.097  0.00  0.00    +0.000 OA
ATOM     21  C   UNL     1      -5.984   1.102  -0.941  0.00  0.00    +0.000 C 
ENDBRANCH  16  20
ENDBRANCH   1  14
TORSDOF 5
