MODEL 1
REMARK VINA RESULT:       0.0      0.000      0.000
REMARK  Name = 
REMARK  5 active torsions:
REMARK  status: ('A' for Active; 'I' for Inactive)
REMARK    1  A    between atoms: O_2  and  C_3
REMARK    2  A    between atoms: C_5  and  C_6
REMARK    3  A    between atoms: C_7  and  C_8
REMARK    4  A    between atoms: C_13  and  O_14
REMARK    5  A    between atoms: C_18  and  O_19
REMARK                            x       y       z     vdW  Elec       q    Type
REMARK                         _______ _______ _______ _____ _____    ______ ____
ROOT
ATOM      1  C   UNL     1       9.409  35.504  69.652  0.00  0.00    +0.000 C 
ATOM      2  C   UNL     1       9.002  34.235  69.707  0.00  0.00    +0.000 C 
ENDROOT
BRANCH   2   3
ATOM      3  C   UNL     1       9.052  33.632  71.047  0.00  0.00    +0.000 A 
ATOM      4  C   UNL     1       7.976  33.906  71.883  0.00  0.00    +0.000 A 
ATOM      5  C   UNL     1       7.430  32.942  72.721  0.00  0.00    +0.000 A 
ATOM      6  C   UNL     1       7.841  31.619  72.619  0.00  0.00    +0.000 A 
ATOM      7  O   UNL     1       6.918  30.571  72.680  0.00  0.00    +0.000 OA
ATOM      8  C   UNL     1       9.118  31.444  72.099  0.00  0.00    +0.000 A 
ATOM      9  C   UNL     1       9.624  32.377  71.220  0.00  0.00    +0.000 A 
BRANCH   8  10
ATOM     10  O   UNL     1       9.690  30.183  72.277  0.00  0.00    +0.000 OA
ATOM     11  C   UNL     1      10.137  29.467  71.148  0.00  0.00    +0.000 C 
ENDBRANCH   8  10
ENDBRANCH   2   3
BRANCH   1  14
ATOM     12  C   UNL     1      13.067  36.091  69.481  0.00  0.00    +0.000 A 
ATOM     13  C   UNL     1      11.897  35.390  69.460  0.00  0.00    +0.000 A 
ATOM     14  C   UNL     1      10.761  35.744  70.173  0.00  0.00    +0.000 A 
ATOM     15  C   UNL     1      10.888  36.897  70.941  0.00  0.00    +0.000 A 
ATOM     16  C   UNL     1      12.058  37.637  70.985  0.00  0.00    +0.000 A 
ATOM     17  C   UNL     1      13.196  37.115  70.386  0.00  0.00    +0.000 A 
BRANCH  12  19
ATOM     18  C   UNL     1      13.953  34.956  67.477  0.00  0.00    +0.000 C 
ATOM     19  O   UNL     1      14.080  35.897  68.536  0.00  0.00    +0.000 OA
ENDBRANCH  12  19
BRANCH  16  20
ATOM     20  O   UNL     1      12.108  38.922  71.532  0.00  0.00    +0.000 OA
ATOM     21  C   UNL     1      10.957  39.675  71.807  0.00  0.00    +0.000 C 
ENDBRANCH  16  20
ENDBRANCH   1  14
TORSDOF 5
ENDMDL
MODEL 2
REMARK VINA RESULT:       0.0     20.702     23.641
REMARK  Name = 
REMARK  5 active torsions:
REMARK  status: ('A' for Active; 'I' for Inactive)
REMARK    1  A    between atoms: O_2  and  C_3
REMARK    2  A    between atoms: C_5  and  C_6
REMARK    3  A    between atoms: C_7  and  C_8
REMARK    4  A    between atoms: C_13  and  O_14
REMARK    5  A    between atoms: C_18  and  O_19
REMARK                            x       y       z     vdW  Elec       q    Type
REMARK                         _______ _______ _______ _____ _____    ______ ____
ROOT
ATOM      1  C   UNL     1       9.849  17.499  54.876  0.00  0.00    +0.000 C 
ATOM      2  C   UNL     1       9.154  16.942  53.883  0.00  0.00    +0.000 C 
ENDROOT
BRANCH   2   3
ATOM      3  C   UNL     1       8.673  17.887  52.865  0.00  0.00    +0.000 A 
ATOM      4  C   UNL     1       9.589  18.251  51.884  0.00  0.00    +0.000 A 
ATOM      5  C   UNL     1       9.222  18.405  50.553  0.00  0.00    +0.000 A 
ATOM      6  C   UNL     1       7.951  18.030  50.136  0.00  0.00    +0.000 A 
ATOM      7  O   UNL     1       7.760  17.344  48.932  0.00  0.00    +0.000 OA
ATOM      8  C   UNL     1       6.980  18.050  51.131  0.00  0.00    +0.000 A 
ATOM      9  C   UNL     1       7.350  17.835  52.440  0.00  0.00    +0.000 A 
BRANCH   8  10
ATOM     10  O   UNL     1       5.653  17.999  50.701  0.00  0.00    +0.000 OA
ATOM     11  C   UNL     1       4.802  17.002  51.219  0.00  0.00    +0.000 C 
ENDBRANCH   8  10
ENDBRANCH   2   3
BRANCH   1  14
ATOM     12  C   UNL     1       7.902  19.048  57.627  0.00  0.00    +0.000 A 
ATOM     13  C   UNL     1       8.135  18.312  56.503  0.00  0.00    +0.000 A 
ATOM     14  C   UNL     1       9.151  18.573  55.594  0.00  0.00    +0.000 A 
ATOM     15  C   UNL     1       9.946  19.672  55.905  0.00  0.00    +0.000 A 
ATOM     16  C   UNL     1       9.742  20.440  57.039  0.00  0.00    +0.000 A 
ATOM     17  C   UNL     1       8.600  20.218  57.795  0.00  0.00    +0.000 A 
BRANCH  12  19
ATOM     18  C   UNL     1       6.452  17.324  58.632  0.00  0.00    +0.000 C 
ATOM     19  O   UNL     1       7.088  18.595  58.670  0.00  0.00    +0.000 OA
ENDBRANCH  12  19
BRANCH  16  20
ATOM     20  O   UNL     1      10.686  21.366  57.493  0.00  0.00    +0.000 OA
ATOM     21  C   UNL     1      12.018  21.368  57.053  0.00  0.00    +0.000 C 
ENDBRANCH  16  20
ENDBRANCH   1  14
TORSDOF 5
ENDMDL
MODEL 3
REMARK VINA RESULT:       0.0     21.621     23.409
REMARK  Name = 
REMARK  5 active torsions:
REMARK  status: ('A' for Active; 'I' for Inactive)
REMARK    1  A    between atoms: O_2  and  C_3
REMARK    2  A    between atoms: C_5  and  C_6
REMARK    3  A    between atoms: C_7  and  C_8
REMARK    4  A    between atoms: C_13  and  O_14
REMARK    5  A    between atoms: C_18  and  O_19
REMARK                            x       y       z     vdW  Elec       q    Type
REMARK                         _______ _______ _______ _____ _____    ______ ____
ROOT
ATOM      1  C   UNL     1      -0.953  26.707  53.343  0.00  0.00    +0.000 C 
ATOM      2  C   UNL     1      -1.439  26.051  52.288  0.00  0.00    +0.000 C 
ENDROOT
BRANCH   2   3
ATOM      3  C   UNL     1      -2.842  25.631  52.420  0.00  0.00    +0.000 A 
ATOM      4  C   UNL     1      -3.800  26.597  52.137  0.00  0.00    +0.000 A 
ATOM      5  C   UNL     1      -4.970  26.296  51.450  0.00  0.00    +0.000 A 
ATOM      6  C   UNL     1      -5.134  25.042  50.875  0.00  0.00    +0.000 A 
ATOM      7  O   UNL     1      -5.688  24.902  49.598  0.00  0.00    +0.000 OA
ATOM      8  C   UNL     1      -4.398  24.025  51.471  0.00  0.00    +0.000 A 
ATOM      9  C   UNL     1      -3.208  24.329  52.096  0.00  0.00    +0.000 A 
BRANCH   8  10
ATOM     10  O   UNL     1      -4.770  22.720  51.146  0.00  0.00    +0.000 OA
ATOM     11  C   UNL     1      -3.806  21.847  50.602  0.00  0.00    +0.000 C 
ENDBRANCH   8  10
ENDBRANCH   2   3
BRANCH   1  14
ATOM     12  C   UNL     1       0.213  24.657  56.206  0.00  0.00    +0.000 A 
ATOM     13  C   UNL     1      -0.226  24.932  54.945  0.00  0.00    +0.000 A 
ATOM     14  C   UNL     1      -1.061  25.991  54.622  0.00  0.00    +0.000 A 
ATOM     15  C   UNL     1      -1.441  26.787  55.698  0.00  0.00    +0.000 A 
ATOM     16  C   UNL     1      -1.012  26.541  56.992  0.00  0.00    +0.000 A 
ATOM     17  C   UNL     1      -0.327  25.362  57.252  0.00  0.00    +0.000 A 
BRANCH  12  19
ATOM     18  C   UNL     1       1.780  22.897  55.472  0.00  0.00    +0.000 C 
ATOM     19  O   UNL     1       1.281  23.789  56.460  0.00  0.00    +0.000 OA
ENDBRANCH  12  19
BRANCH  16  20
ATOM     20  O   UNL     1      -1.167  27.476  58.020  0.00  0.00    +0.000 OA
ATOM     21  C   UNL     1      -1.538  28.808  57.783  0.00  0.00    +0.000 C 
ENDBRANCH  16  20
ENDBRANCH   1  14
TORSDOF 5
ENDMDL
MODEL 4
REMARK VINA RESULT:       0.0     26.868     30.036
REMARK  Name = 
REMARK  5 active torsions:
REMARK  status: ('A' for Active; 'I' for Inactive)
REMARK    1  A    between atoms: O_2  and  C_3
REMARK    2  A    between atoms: C_5  and  C_6
REMARK    3  A    between atoms: C_7  and  C_8
REMARK    4  A    between atoms: C_13  and  O_14
REMARK    5  A    between atoms: C_18  and  O_19
REMARK                            x       y       z     vdW  Elec       q    Type
REMARK                         _______ _______ _______ _____ _____    ______ ____
ROOT
ATOM      1  C   UNL     1      12.496  10.315  52.677  0.00  0.00    +0.000 C 
ATOM      2  C   UNL     1      12.632   9.118  53.248  0.00  0.00    +0.000 C 
ENDROOT
BRANCH   2   3
ATOM      3  C   UNL     1      13.206   9.144  54.601  0.00  0.00    +0.000 A 
ATOM      4  C   UNL     1      12.317   9.402  55.639  0.00  0.00    +0.000 A 
ATOM      5  C   UNL     1      12.396   8.740  56.857  0.00  0.00    +0.000 A 
ATOM      6  C   UNL     1      13.269   7.670  57.012  0.00  0.00    +0.000 A 
ATOM      7  O   UNL     1      12.878   6.514  57.694  0.00  0.00    +0.000 OA
ATOM      8  C   UNL     1      14.364   7.684  56.157  0.00  0.00    +0.000 A 
ATOM      9  C   UNL     1      14.254   8.291  54.926  0.00  0.00    +0.000 A 
BRANCH   8  10
ATOM     10  O   UNL     1      15.417   6.828  56.488  0.00  0.00    +0.000 OA
ATOM     11  C   UNL     1      15.798   5.825  55.573  0.00  0.00    +0.000 C 
ENDBRANCH   8  10
ENDBRANCH   2   3
BRANCH   1  14
ATOM     12  C   UNL     1      15.514  11.760  51.077  0.00  0.00    +0.000 A 
ATOM     13  C   UNL     1      14.730  10.820  51.677  0.00  0.00    +0.000 A 
ATOM     14  C   UNL     1      13.731  11.107  52.596  0.00  0.00    +0.000 A 
ATOM     15  C   UNL     1      13.570  12.459  52.883  0.00  0.00    +0.000 A 
ATOM     16  C   UNL     1      14.345  13.442  52.291  0.00  0.00    +0.000 A 
ATOM     17  C   UNL     1      15.435  13.056  51.523  0.00  0.00    +0.000 A 
BRANCH  12  19
ATOM     18  C   UNL     1      16.305  10.201  49.336  0.00  0.00    +0.000 C 
ATOM     19  O   UNL     1      16.289  11.485  49.945  0.00  0.00    +0.000 OA
ENDBRANCH  12  19
BRANCH  16  20
ATOM     20  O   UNL     1      14.017  14.798  52.368  0.00  0.00    +0.000 OA
ATOM     21  C   UNL     1      12.772  15.252  52.829  0.00  0.00    +0.000 C 
ENDBRANCH  16  20
ENDBRANCH   1  14
TORSDOF 5
ENDMDL
MODEL 5
REMARK VINA RESULT:       0.0     20.138     23.516
REMARK  Name = 
REMARK  5 active torsions:
REMARK  status: ('A' for Active; 'I' for Inactive)
REMARK    1  A    between atoms: O_2  and  C_3
REMARK    2  A    between atoms: C_5  and  C_6
REMARK    3  A    between atoms: C_7  and  C_8
REMARK    4  A    between atoms: C_13  and  O_14
REMARK    5  A    between atoms: C_18  and  O_19
REMARK                            x       y       z     vdW  Elec       q    Type
REMARK                         _______ _______ _______ _____ _____    ______ ____
ROOT
ATOM      1  C   UNL     1       9.340  16.687  59.363  0.00  0.00    +0.000 C 
ATOM      2  C   UNL     1       9.568  16.426  58.076  0.00  0.00    +0.000 C 
ENDROOT
BRANCH   2   3
ATOM      3  C   UNL     1       8.409  15.894  57.344  0.00  0.00    +0.000 A 
ATOM      4  C   UNL     1       7.486  16.831  56.893  0.00  0.00    +0.000 A 
ATOM      5  C   UNL     1       6.873  16.723  55.651  0.00  0.00    +0.000 A 
ATOM      6  C   UNL     1       7.299  15.756  54.748  0.00  0.00    +0.000 A 
ATOM      7  O   UNL     1       7.444  16.053  53.389  0.00  0.00    +0.000 OA
ATOM      8  C   UNL     1       7.899  14.643  55.325  0.00  0.00    +0.000 A 
ATOM      9  C   UNL     1       8.557  14.778  56.528  0.00  0.00    +0.000 A 
BRANCH   8  10
ATOM     10  O   UNL     1       8.044  13.524  54.504  0.00  0.00    +0.000 OA
ATOM     11  C   UNL     1       9.332  12.990  54.293  0.00  0.00    +0.000 C 
ENDBRANCH   8  10
ENDBRANCH   2   3
BRANCH   1  14
ATOM     12  C   UNL     1       9.519  13.801  61.687  0.00  0.00    +0.000 A 
ATOM     13  C   UNL     1       9.644  14.491  60.517  0.00  0.00    +0.000 A 
ATOM     14  C   UNL     1       8.831  15.553  60.146  0.00  0.00    +0.000 A 
ATOM     15  C   UNL     1       7.844  15.885  61.068  0.00  0.00    +0.000 A 
ATOM     16  C   UNL     1       7.690  15.210  62.267  0.00  0.00    +0.000 A 
ATOM     17  C   UNL     1       8.426  14.053  62.477  0.00  0.00    +0.000 A 
BRANCH  12  19
ATOM     18  C   UNL     1      11.759  12.783  61.495  0.00  0.00    +0.000 C 
ATOM     19  O   UNL     1      10.521  12.954  62.173  0.00  0.00    +0.000 OA
ENDBRANCH  12  19
BRANCH  16  20
ATOM     20  O   UNL     1       6.888  15.700  63.303  0.00  0.00    +0.000 OA
ATOM     21  C   UNL     1       6.200  16.920  63.216  0.00  0.00    +0.000 C 
ENDBRANCH  16  20
ENDBRANCH   1  14
TORSDOF 5
ENDMDL
MODEL 6
REMARK VINA RESULT:       0.0     31.760     32.651
REMARK  Name = 
REMARK  5 active torsions:
REMARK  status: ('A' for Active; 'I' for Inactive)
REMARK    1  A    between atoms: O_2  and  C_3
REMARK    2  A    between atoms: C_5  and  C_6
REMARK    3  A    between atoms: C_7  and  C_8
REMARK    4  A    between atoms: C_13  and  O_14
REMARK    5  A    between atoms: C_18  and  O_19
REMARK                            x       y       z     vdW  Elec       q    Type
REMARK                         _______ _______ _______ _____ _____    ______ ____
ROOT
ATOM      1  C   UNL     1      11.312   6.007  51.878  0.00  0.00    +0.000 C 
ATOM      2  C   UNL     1      10.759   5.272  52.842  0.00  0.00    +0.000 C 
ENDROOT
BRANCH   2   3
ATOM      3  C   UNL     1       9.855   6.011  53.736  0.00  0.00    +0.000 A 
ATOM      4  C   UNL     1       8.555   6.194  53.278  0.00  0.00    +0.000 A 
ATOM      5  C   UNL     1       7.456   6.098  54.121  0.00  0.00    +0.000 A 
ATOM      6  C   UNL     1       7.618   5.645  55.425  0.00  0.00    +0.000 A 
ATOM      7  O   UNL     1       6.708   4.748  55.994  0.00  0.00    +0.000 OA
ATOM      8  C   UNL     1       8.887   5.840  55.957  0.00  0.00    +0.000 A 
ATOM      9  C   UNL     1       9.976   5.872  55.114  0.00  0.00    +0.000 A 
BRANCH   8  10
ATOM     10  O   UNL     1       9.005   5.703  57.341  0.00  0.00    +0.000 OA
ATOM     11  C   UNL     1       9.904   4.750  57.861  0.00  0.00    +0.000 C 
ENDBRANCH   8  10
ENDBRANCH   2   3
BRANCH   1  14
ATOM     12  C   UNL     1      14.296   8.009  52.799  0.00  0.00    +0.000 A 
ATOM     13  C   UNL     1      13.303   7.084  52.936  0.00  0.00    +0.000 A 
ATOM     14  C   UNL     1      12.052   7.187  52.345  0.00  0.00    +0.000 A 
ATOM     15  C   UNL     1      11.860   8.331  51.576  0.00  0.00    +0.000 A 
ATOM     16  C   UNL     1      12.846   9.289  51.411  0.00  0.00    +0.000 A 
ATOM     17  C   UNL     1      13.998   9.196  52.178  0.00  0.00    +0.000 A 
BRANCH  12  19
ATOM     18  C   UNL     1      15.994   6.610  53.917  0.00  0.00    +0.000 C 
ATOM     19  O   UNL     1      15.626   7.743  53.141  0.00  0.00    +0.000 OA
ENDBRANCH  12  19
BRANCH  16  20
ATOM     20  O   UNL     1      12.758  10.291  50.439  0.00  0.00    +0.000 OA
ATOM     21  C   UNL     1      11.768  10.297  49.445  0.00  0.00    +0.000 C 
ENDBRANCH  16  20
ENDBRANCH   1  14
TORSDOF 5
ENDMDL
MODEL 7
REMARK VINA RESULT:       0.0     24.908     27.681
REMARK  Name = 
REMARK  5 active torsions:
REMARK  status: ('A' for Active; 'I' for Inactive)
REMARK    1  A    between atoms: O_2  and  C_3
REMARK    2  A    between atoms: C_5  and  C_6
REMARK    3  A    between atoms: C_7  and  C_8
REMARK    4  A    between atoms: C_13  and  O_14
REMARK    5  A    between atoms: C_18  and  O_19
REMARK                            x       y       z     vdW  Elec       q    Type
REMARK                         _______ _______ _______ _____ _____    ______ ____
ROOT
ATOM      1  C   UNL     1      17.430   9.760  73.863  0.00  0.00    +0.000 C 
ATOM      2  C   UNL     1      18.479  10.123  74.601  0.00  0.00    +0.000 C 
ENDROOT
BRANCH   2   3
ATOM      3  C   UNL     1      19.687  10.453  73.830  0.00  0.00    +0.000 A 
ATOM      4  C   UNL     1      19.741  11.736  73.297  0.00  0.00    +0.000 A 
ATOM      5  C   UNL     1      20.916  12.477  73.279  0.00  0.00    +0.000 A 
ATOM      6  C   UNL     1      22.039  12.015  73.954  0.00  0.00    +0.000 A 
ATOM      7  O   UNL     1      22.836  12.884  74.707  0.00  0.00    +0.000 OA
ATOM      8  C   UNL     1      22.090  10.637  74.127  0.00  0.00    +0.000 A 
ATOM      9  C   UNL     1      20.915   9.921  74.204  0.00  0.00    +0.000 A 
BRANCH   8  10
ATOM     10  O   UNL     1      23.326  10.106  74.500  0.00  0.00    +0.000 OA
ATOM     11  C   UNL     1      23.433   9.409  75.721  0.00  0.00    +0.000 C 
ENDBRANCH   8  10
ENDBRANCH   2   3
BRANCH   1  14
ATOM     12  C   UNL     1      17.336   6.235  72.712  0.00  0.00    +0.000 A 
ATOM     13  C   UNL     1      17.765   7.326  73.410  0.00  0.00    +0.000 A 
ATOM     14  C   UNL     1      17.671   8.632  72.953  0.00  0.00    +0.000 A 
ATOM     15  C   UNL     1      17.094   8.773  71.695  0.00  0.00    +0.000 A 
ATOM     16  C   UNL     1      16.644   7.690  70.959  0.00  0.00    +0.000 A 
ATOM     17  C   UNL     1      16.939   6.411  71.410  0.00  0.00    +0.000 A 
BRANCH  12  19
ATOM     18  C   UNL     1      17.395   4.763  74.691  0.00  0.00    +0.000 C 
ATOM     19  O   UNL     1      17.159   4.981  73.306  0.00  0.00    +0.000 OA
ENDBRANCH  12  19
BRANCH  16  20
ATOM     20  O   UNL     1      15.833   7.840  69.830  0.00  0.00    +0.000 OA
ATOM     21  C   UNL     1      15.214   9.054  69.498  0.00  0.00    +0.000 C 
ENDBRANCH  16  20
ENDBRANCH   1  14
TORSDOF 5
ENDMDL
MODEL 8
REMARK VINA RESULT:       0.0     20.208     24.462
REMARK  Name = 
REMARK  5 active torsions:
REMARK  status: ('A' for Active; 'I' for Inactive)
REMARK    1  A    between atoms: O_2  and  C_3
REMARK    2  A    between atoms: C_5  and  C_6
REMARK    3  A    between atoms: C_7  and  C_8
REMARK    4  A    between atoms: C_13  and  O_14
REMARK    5  A    between atoms: C_18  and  O_19
REMARK                            x       y       z     vdW  Elec       q    Type
REMARK                         _______ _______ _______ _____ _____    ______ ____
ROOT
ATOM      1  C   UNL     1     -12.897  31.842  79.391  0.00  0.00    +0.000 C 
ATOM      2  C   UNL     1     -12.273  32.760  78.651  0.00  0.00    +0.000 C 
ENDROOT
BRANCH   2   3
ATOM      3  C   UNL     1     -10.888  32.421  78.295  0.00  0.00    +0.000 A 
ATOM      4  C   UNL     1     -10.726  31.548  77.225  0.00  0.00    +0.000 A 
ATOM      5  C   UNL     1      -9.717  31.714  76.285  0.00  0.00    +0.000 A 
ATOM      6  C   UNL     1      -8.941  32.866  76.295  0.00  0.00    +0.000 A 
ATOM      7  O   UNL     1      -8.605  33.520  75.104  0.00  0.00    +0.000 OA
ATOM      8  C   UNL     1      -8.849  33.497  77.529  0.00  0.00    +0.000 A 
ATOM      9  C   UNL     1      -9.885  33.375  78.430  0.00  0.00    +0.000 A 
BRANCH   8  10
ATOM     10  O   UNL     1      -7.840  34.453  77.662  0.00  0.00    +0.000 OA
ATOM     11  C   UNL     1      -8.171  35.740  78.131  0.00  0.00    +0.000 C 
ENDBRANCH   8  10
ENDBRANCH   2   3
BRANCH   1  14
ATOM     12  C   UNL     1     -12.235  31.889  83.040  0.00  0.00    +0.000 A 
ATOM     13  C   UNL     1     -12.219  32.323  81.747  0.00  0.00    +0.000 A 
ATOM     14  C   UNL     1     -12.215  31.485  80.642  0.00  0.00    +0.000 A 
ATOM     15  C   UNL     1     -12.227  30.125  80.938  0.00  0.00    +0.000 A 
ATOM     16  C   UNL     1     -12.246  29.648  82.238  0.00  0.00    +0.000 A 
ATOM     17  C   UNL     1     -12.069  30.548  83.279  0.00  0.00    +0.000 A 
BRANCH  12  19
ATOM     18  C   UNL     1     -12.741  34.128  83.945  0.00  0.00    +0.000 C 
ATOM     19  O   UNL     1     -12.546  32.730  84.114  0.00  0.00    +0.000 OA
ENDBRANCH  12  19
BRANCH  16  20
ATOM     20  O   UNL     1     -12.526  28.311  82.538  0.00  0.00    +0.000 OA
ATOM     21  C   UNL     1     -13.143  27.443  81.625  0.00  0.00    +0.000 C 
ENDBRANCH  16  20
ENDBRANCH   1  14
TORSDOF 5
ENDMDL
MODEL 9
REMARK VINA RESULT:       0.0     19.313     20.482
REMARK  Name = 
REMARK  5 active torsions:
REMARK  status: ('A' for Active; 'I' for Inactive)
REMARK    1  A    between atoms: O_2  and  C_3
REMARK    2  A    between atoms: C_5  and  C_6
REMARK    3  A    between atoms: C_7  and  C_8
REMARK    4  A    between atoms: C_13  and  O_14
REMARK    5  A    between atoms: C_18  and  O_19
REMARK                            x       y       z     vdW  Elec       q    Type
REMARK                         _______ _______ _______ _____ _____    ______ ____
ROOT
ATOM      1  C   UNL     1       8.171  16.348  81.869  0.00  0.00    +0.000 C 
ATOM      2  C   UNL     1       7.308  15.765  81.036  0.00  0.00    +0.000 C 
ENDROOT
BRANCH   2   3
ATOM      3  C   UNL     1       7.252  16.362  79.693  0.00  0.00    +0.000 A 
ATOM      4  C   UNL     1       8.238  15.957  78.801  0.00  0.00    +0.000 A 
ATOM      5  C   UNL     1       7.966  15.723  77.459  0.00  0.00    +0.000 A 
ATOM      6  C   UNL     1       6.652  15.724  77.006  0.00  0.00    +0.000 A 
ATOM      7  O   UNL     1       6.202  14.760  76.098  0.00  0.00    +0.000 OA
ATOM      8  C   UNL     1       5.772  16.480  77.771  0.00  0.00    +0.000 A 
ATOM      9  C   UNL     1       6.022  16.653  79.115  0.00  0.00    +0.000 A 
BRANCH   8  10
ATOM     10  O   UNL     1       4.539  16.773  77.187  0.00  0.00    +0.000 OA
ATOM     11  C   UNL     1       3.357  16.377  77.845  0.00  0.00    +0.000 C 
ENDBRANCH   8  10
ENDBRANCH   2   3
BRANCH   1  14
ATOM     12  C   UNL     1       7.013  19.431  83.576  0.00  0.00    +0.000 A 
ATOM     13  C   UNL     1       6.931  18.297  82.822  0.00  0.00    +0.000 A 
ATOM     14  C   UNL     1       7.972  17.791  82.057  0.00  0.00    +0.000 A 
ATOM     15  C   UNL     1       9.148  18.534  82.103  0.00  0.00    +0.000 A 
ATOM     16  C   UNL     1       9.269  19.687  82.860  0.00  0.00    +0.000 A 
ATOM     17  C   UNL     1       8.130  20.218  83.450  0.00  0.00    +0.000 A 
BRANCH  12  19
ATOM     18  C   UNL     1       5.122  18.802  85.031  0.00  0.00    +0.000 C 
ATOM     19  O   UNL     1       6.074  19.749  84.563  0.00  0.00    +0.000 OA
ENDBRANCH  12  19
BRANCH  16  20
ATOM     20  O   UNL     1      10.507  20.282  83.122  0.00  0.00    +0.000 OA
ATOM     21  C   UNL     1      11.726  19.626  82.896  0.00  0.00    +0.000 C 
ENDBRANCH  16  20
ENDBRANCH   1  14
TORSDOF 5
ENDMDL
MODEL 10
REMARK VINA RESULT:       0.0     28.060     31.008
REMARK  Name = 
REMARK  5 active torsions:
REMARK  status: ('A' for Active; 'I' for Inactive)
REMARK    1  A    between atoms: O_2  and  C_3
REMARK    2  A    between atoms: C_5  and  C_6
REMARK    3  A    between atoms: C_7  and  C_8
REMARK    4  A    between atoms: C_13  and  O_14
REMARK    5  A    between atoms: C_18  and  O_19
REMARK                            x       y       z     vdW  Elec       q    Type
REMARK                         _______ _______ _______ _____ _____    ______ ____
ROOT
ATOM      1  C   UNL     1      14.500  10.888  53.851  0.00  0.00    +0.000 C 
ATOM      2  C   UNL     1      15.346  11.480  54.694  0.00  0.00    +0.000 C 
ENDROOT
BRANCH   2   3
ATOM      3  C   UNL     1      16.686  11.732  54.143  0.00  0.00    +0.000 A 
ATOM      4  C   UNL     1      16.824  12.876  53.365  0.00  0.00    +0.000 A 
ATOM      5  C   UNL     1      17.952  13.683  53.435  0.00  0.00    +0.000 A 
ATOM      6  C   UNL     1      18.908  13.457  54.418  0.00  0.00    +0.000 A 
ATOM      7  O   UNL     1      19.492  14.521  55.113  0.00  0.00    +0.000 OA
ATOM      8  C   UNL     1      18.956  12.153  54.896  0.00  0.00    +0.000 A 
ATOM      9  C   UNL     1      17.814  11.383  54.877  0.00  0.00    +0.000 A 
BRANCH   8  10
ATOM     10  O   UNL     1      20.091  11.805  55.631  0.00  0.00    +0.000 OA
ATOM     11  C   UNL     1      19.935  11.314  56.943  0.00  0.00    +0.000 C 
ENDBRANCH   8  10
ENDBRANCH   2   3
BRANCH   1  14
ATOM     12  C   UNL     1      14.756   7.203  53.516  0.00  0.00    +0.000 A 
ATOM     13  C   UNL     1      14.986   8.444  54.033  0.00  0.00    +0.000 A 
ATOM     14  C   UNL     1      14.972   9.615  53.290  0.00  0.00    +0.000 A 
ATOM     15  C   UNL     1      14.702   9.446  51.935  0.00  0.00    +0.000 A 
ATOM     16  C   UNL     1      14.461   8.202  51.376  0.00  0.00    +0.000 A 
ATOM     17  C   UNL     1      14.670   7.072  52.153  0.00  0.00    +0.000 A 
BRANCH  12  19
ATOM     18  C   UNL     1      14.264   6.208  55.720  0.00  0.00    +0.000 C 
ATOM     19  O   UNL     1      14.474   6.092  54.318  0.00  0.00    +0.000 OA
ENDBRANCH  12  19
BRANCH  16  20
ATOM     20  O   UNL     1      13.932   8.052  50.090  0.00  0.00    +0.000 OA
ATOM     21  C   UNL     1      13.230   9.075  49.435  0.00  0.00    +0.000 C 
ENDBRANCH  16  20
ENDBRANCH   1  14
TORSDOF 5
ENDMDL
