REMARK  Name = 
REMARK  7 active torsions:
REMARK  status: ('A' for Active; 'I' for Inactive)
REMARK    1  A    between atoms: O_2  and  C_3
REMARK    2  A    between atoms: C_5  and  C_6
REMARK    3  A    between atoms: C_7  and  O_8
REMARK    4  A    between atoms: C_7  and  C_12
REMARK    5  A    between atoms: O_8  and  C_9
REMARK    6  A    between atoms: C_22  and  O_23
REMARK    7  A    between atoms: C_25  and  O_26
REMARK                            x       y       z     vdW  Elec       q    Type
REMARK                         _______ _______ _______ _____ _____    ______ ____
ROOT
ATOM      1  C   UNL     1      -0.090   0.855  -1.177  0.00  0.00    +0.000 C 
ATOM      2  C   UNL     1       0.972   1.378  -0.579  0.00  0.00    +0.000 C 
ENDROOT
BRANCH   2   3
ATOM      3  C   UNL     1       1.789   0.436   0.197  0.00  0.00    +0.000 A 
ATOM      4  C   UNL     1       2.971   0.957   0.709  0.00  0.00    +0.000 A 
ATOM      5  C   UNL     1       4.016   0.130   1.102  0.00  0.00    +0.000 A 
ATOM      6  C   UNL     1       4.178  -1.037   0.364  0.00  0.00    +0.000 A 
ATOM      7  C   UNL     1       2.998  -1.661  -0.019  0.00  0.00    +0.000 A 
ATOM      8  C   UNL     1       1.853  -0.905  -0.165  0.00  0.00    +0.000 A 
ATOM      9  O   UNL     1       3.246  -3.027  -0.176  0.00  0.00    +0.000 OA
ATOM     10  C   UNL     1       4.605  -3.275   0.168  0.00  0.00    +0.000 C 
ATOM     11  O   UNL     1       5.179  -1.975   0.233  0.00  0.00    +0.000 OA
ENDBRANCH   2   3
BRANCH   1  14
ATOM     12  C   UNL     1      -3.051   0.372   0.907  0.00  0.00    +0.000 A 
ATOM     13  C   UNL     1      -1.793   0.786   0.531  0.00  0.00    +0.000 A 
ATOM     14  C   UNL     1      -0.981   0.055  -0.326  0.00  0.00    +0.000 A 
ATOM     15  C   UNL     1      -1.588  -1.032  -0.943  0.00  0.00    +0.000 A 
ATOM     16  C   UNL     1      -2.863  -1.459  -0.595  0.00  0.00    +0.000 A 
ATOM     17  C   UNL     1      -3.575  -0.777   0.354  0.00  0.00    +0.000 A 
BRANCH  12  19
ATOM     18  C   UNL     1      -4.367   2.366   1.155  0.00  0.00    +0.000 C 
ATOM     19  O   UNL     1      -3.867   1.158   1.718  0.00  0.00    +0.000 OA
ENDBRANCH  12  19
BRANCH  16  20
ATOM     20  O   UNL     1      -3.542  -2.411  -1.361  0.00  0.00    +0.000 OA
ATOM     21  C   UNL     1      -3.885  -2.012  -2.683  0.00  0.00    +0.000 C 
ENDBRANCH  16  20
BRANCH  17  22
ATOM     22  O   UNL     1      -4.837  -1.239   0.738  0.00  0.00    +0.000 OA
ATOM     23  C   UNL     1      -4.929  -2.112   1.859  0.00  0.00    +0.000 C 
ENDBRANCH  17  22
ENDBRANCH   1  14
BRANCH   2  24
ATOM     24  O   UNL     1       1.532   2.497  -1.204  0.00  0.00    +0.000 OA
BRANCH  24  25
ATOM     25  C   UNL     1       1.941   3.539  -0.392  0.00  0.00    +0.000 C 
ATOM     26  C   UNL     1       2.860   4.538  -1.020  0.00  0.00    +0.000 C 
ATOM     27  O   UNL     1       1.229   3.855   0.605  0.00  0.00    +0.000 OA
ENDBRANCH  24  25
ENDBRANCH   2  24
TORSDOF 7
