MODEL 1
REMARK VINA RESULT:      -0.0      0.000      0.000
REMARK  Name = 
REMARK  7 active torsions:
REMARK  status: ('A' for Active; 'I' for Inactive)
REMARK    1  A    between atoms: O_2  and  C_3
REMARK    2  A    between atoms: C_5  and  C_6
REMARK    3  A    between atoms: C_7  and  O_8
REMARK    4  A    between atoms: C_7  and  C_12
REMARK    5  A    between atoms: O_8  and  C_9
REMARK    6  A    between atoms: C_22  and  O_23
REMARK    7  A    between atoms: C_25  and  O_26
REMARK                            x       y       z     vdW  Elec       q    Type
REMARK                         _______ _______ _______ _____ _____    ______ ____
ROOT
ATOM      1  C   UNL     1      11.757  19.760  45.666  0.00  0.00    +0.000 C 
ATOM      2  C   UNL     1      10.712  18.975  45.444  0.00  0.00    +0.000 C 
ENDROOT
BRANCH   2   3
ATOM      3  C   UNL     1      11.009  17.699  44.780  0.00  0.00    +0.000 A 
ATOM      4  C   UNL     1      10.149  17.354  43.745  0.00  0.00    +0.000 A 
ATOM      5  C   UNL     1      10.043  16.042  43.299  0.00  0.00    +0.000 A 
ATOM      6  C   UNL     1      10.195  15.057  44.268  0.00  0.00    +0.000 A 
ATOM      7  C   UNL     1      11.170  15.315  45.223  0.00  0.00    +0.000 A 
ATOM      8  C   UNL     1      11.502  16.623  45.510  0.00  0.00    +0.000 A 
ATOM      9  O   UNL     1      11.645  14.097  45.715  0.00  0.00    +0.000 OA
ATOM     10  C   UNL     1      10.988  13.046  45.014  0.00  0.00    +0.000 C 
ATOM     11  O   UNL     1       9.928  13.707  44.333  0.00  0.00    +0.000 OA
ENDBRANCH   2   3
BRANCH   1  14
ATOM     12  C   UNL     1      13.079  21.870  42.994  0.00  0.00    +0.000 A 
ATOM     13  C   UNL     1      12.204  21.063  43.685  0.00  0.00    +0.000 A 
ATOM     14  C   UNL     1      12.622  20.026  44.509  0.00  0.00    +0.000 A 
ATOM     15  C   UNL     1      13.989  19.969  44.752  0.00  0.00    +0.000 A 
ATOM     16  C   UNL     1      14.891  20.785  44.081  0.00  0.00    +0.000 A 
ATOM     17  C   UNL     1      14.435  21.707  43.178  0.00  0.00    +0.000 A 
BRANCH  12  19
ATOM     18  C   UNL     1      12.076  22.637  40.950  0.00  0.00    +0.000 C 
ATOM     19  O   UNL     1      12.632  22.943  42.225  0.00  0.00    +0.000 OA
ENDBRANCH  12  19
BRANCH  16  20
ATOM     20  O   UNL     1      16.227  20.869  44.482  0.00  0.00    +0.000 OA
ATOM     21  C   UNL     1      17.050  19.763  44.130  0.00  0.00    +0.000 C 
ENDBRANCH  16  20
BRANCH  17  22
ATOM     22  O   UNL     1      15.349  22.491  42.468  0.00  0.00    +0.000 OA
ATOM     23  C   UNL     1      15.846  21.999  41.228  0.00  0.00    +0.000 C 
ENDBRANCH  17  22
ENDBRANCH   1  14
BRANCH   2  24
ATOM     24  O   UNL     1       9.650  19.106  46.345  0.00  0.00    +0.000 OA
BRANCH  24  25
ATOM     25  C   UNL     1       8.829  20.209  46.202  0.00  0.00    +0.000 C 
ATOM     26  C   UNL     1       8.145  20.350  44.879  0.00  0.00    +0.000 C 
ATOM     27  O   UNL     1       8.349  20.755  47.237  0.00  0.00    +0.000 OA
ENDBRANCH  24  25
ENDBRANCH   2  24
TORSDOF 7
ENDMDL
MODEL 2
REMARK VINA RESULT:       0.0      9.185     13.668
REMARK  Name = 
REMARK  7 active torsions:
REMARK  status: ('A' for Active; 'I' for Inactive)
REMARK    1  A    between atoms: O_2  and  C_3
REMARK    2  A    between atoms: C_5  and  C_6
REMARK    3  A    between atoms: C_7  and  O_8
REMARK    4  A    between atoms: C_7  and  C_12
REMARK    5  A    between atoms: O_8  and  C_9
REMARK    6  A    between atoms: C_22  and  O_23
REMARK    7  A    between atoms: C_25  and  O_26
REMARK                            x       y       z     vdW  Elec       q    Type
REMARK                         _______ _______ _______ _____ _____    ______ ____
ROOT
ATOM      1  C   UNL     1      21.382  25.182  50.575  0.00  0.00    +0.000 C 
ATOM      2  C   UNL     1      21.544  26.454  50.235  0.00  0.00    +0.000 C 
ENDROOT
BRANCH   2   3
ATOM      3  C   UNL     1      20.317  27.169  49.862  0.00  0.00    +0.000 A 
ATOM      4  C   UNL     1      20.412  27.957  48.721  0.00  0.00    +0.000 A 
ATOM      5  C   UNL     1      19.506  28.980  48.470  0.00  0.00    +0.000 A 
ATOM      6  C   UNL     1      19.019  29.648  49.587  0.00  0.00    +0.000 A 
ATOM      7  C   UNL     1      18.763  28.845  50.690  0.00  0.00    +0.000 A 
ATOM      8  C   UNL     1      19.465  27.666  50.842  0.00  0.00    +0.000 A 
ATOM      9  O   UNL     1      17.766  29.448  51.461  0.00  0.00    +0.000 OA
ATOM     10  C   UNL     1      17.348  30.636  50.797  0.00  0.00    +0.000 C 
ATOM     11  O   UNL     1      18.340  30.830  49.796  0.00  0.00    +0.000 OA
ENDBRANCH   2   3
BRANCH   1  14
ATOM     12  C   UNL     1      21.093  22.608  47.999  0.00  0.00    +0.000 A 
ATOM     13  C   UNL     1      21.373  23.824  48.580  0.00  0.00    +0.000 A 
ATOM     14  C   UNL     1      20.628  24.352  49.626  0.00  0.00    +0.000 A 
ATOM     15  C   UNL     1      19.694  23.490  50.189  0.00  0.00    +0.000 A 
ATOM     16  C   UNL     1      19.406  22.251  49.633  0.00  0.00    +0.000 A 
ATOM     17  C   UNL     1      20.081  21.830  48.519  0.00  0.00    +0.000 A 
BRANCH  12  19
ATOM     18  C   UNL     1      21.756  22.634  45.690  0.00  0.00    +0.000 C 
ATOM     19  O   UNL     1      21.897  22.077  46.993  0.00  0.00    +0.000 OA
ENDBRANCH  12  19
BRANCH  16  20
ATOM     20  O   UNL     1      18.630  21.312  50.319  0.00  0.00    +0.000 OA
ATOM     21  C   UNL     1      17.227  21.549  50.317  0.00  0.00    +0.000 C 
ENDBRANCH  16  20
BRANCH  17  22
ATOM     22  O   UNL     1      19.754  20.604  47.933  0.00  0.00    +0.000 OA
ATOM     23  C   UNL     1      18.751  20.581  46.923  0.00  0.00    +0.000 C 
ENDBRANCH  17  22
ENDBRANCH   1  14
BRANCH   2  24
ATOM     24  O   UNL     1      22.626  27.109  50.831  0.00  0.00    +0.000 OA
BRANCH  24  25
ATOM     25  C   UNL     1      23.886  26.842  50.327  0.00  0.00    +0.000 C 
ATOM     26  C   UNL     1      24.084  27.130  48.873  0.00  0.00    +0.000 C 
ATOM     27  O   UNL     1      24.871  26.817  51.120  0.00  0.00    +0.000 OA
ENDBRANCH  24  25
ENDBRANCH   2  24
TORSDOF 7
ENDMDL
MODEL 3
REMARK VINA RESULT:       0.0     37.763     39.250
REMARK  Name = 
REMARK  7 active torsions:
REMARK  status: ('A' for Active; 'I' for Inactive)
REMARK    1  A    between atoms: O_2  and  C_3
REMARK    2  A    between atoms: C_5  and  C_6
REMARK    3  A    between atoms: C_7  and  O_8
REMARK    4  A    between atoms: C_7  and  C_12
REMARK    5  A    between atoms: O_8  and  C_9
REMARK    6  A    between atoms: C_22  and  O_23
REMARK    7  A    between atoms: C_25  and  O_26
REMARK                            x       y       z     vdW  Elec       q    Type
REMARK                         _______ _______ _______ _____ _____    ______ ____
ROOT
ATOM      1  C   UNL     1      23.903  13.017  79.365  0.00  0.00    +0.000 C 
ATOM      2  C   UNL     1      23.753  11.785  79.833  0.00  0.00    +0.000 C 
ENDROOT
BRANCH   2   3
ATOM      3  C   UNL     1      23.592  11.676  81.289  0.00  0.00    +0.000 A 
ATOM      4  C   UNL     1      24.331  10.667  81.895  0.00  0.00    +0.000 A 
ATOM      5  C   UNL     1      23.996  10.181  83.152  0.00  0.00    +0.000 A 
ATOM      6  C   UNL     1      22.639  10.155  83.453  0.00  0.00    +0.000 A 
ATOM      7  C   UNL     1      21.912  11.244  82.991  0.00  0.00    +0.000 A 
ATOM      8  C   UNL     1      22.360  11.932  81.882  0.00  0.00    +0.000 A 
ATOM      9  O   UNL     1      20.802  11.424  83.821  0.00  0.00    +0.000 OA
ATOM     10  C   UNL     1      20.863  10.455  84.862  0.00  0.00    +0.000 C 
ATOM     11  O   UNL     1      21.868   9.549  84.421  0.00  0.00    +0.000 OA
ENDBRANCH   2   3
BRANCH   1  14
ATOM     12  C   UNL     1      27.168  14.650  79.489  0.00  0.00    +0.000 A 
ATOM     13  C   UNL     1      26.227  13.645  79.524  0.00  0.00    +0.000 A 
ATOM     14  C   UNL     1      24.940  13.831  80.012  0.00  0.00    +0.000 A 
ATOM     15  C   UNL     1      24.589  15.147  80.288  0.00  0.00    +0.000 A 
ATOM     16  C   UNL     1      25.515  16.181  80.243  0.00  0.00    +0.000 A 
ATOM     17  C   UNL     1      26.809  15.922  79.879  0.00  0.00    +0.000 A 
BRANCH  12  19
ATOM     18  C   UNL     1      29.378  13.740  79.725  0.00  0.00    +0.000 C 
ATOM     19  O   UNL     1      28.430  14.450  78.935  0.00  0.00    +0.000 OA
ENDBRANCH  12  19
BRANCH  16  20
ATOM     20  O   UNL     1      25.111  17.517  80.313  0.00  0.00    +0.000 OA
ATOM     21  C   UNL     1      24.763  17.992  81.608  0.00  0.00    +0.000 C 
ENDBRANCH  16  20
BRANCH  17  22
ATOM     22  O   UNL     1      27.749  16.956  79.884  0.00  0.00    +0.000 OA
ATOM     23  C   UNL     1      28.489  17.197  81.076  0.00  0.00    +0.000 C 
ENDBRANCH  17  22
ENDBRANCH   1  14
BRANCH   2  24
ATOM     24  O   UNL     1      23.162  10.869  78.956  0.00  0.00    +0.000 OA
BRANCH  24  25
ATOM     25  C   UNL     1      23.952  10.361  77.941  0.00  0.00    +0.000 C 
ATOM     26  C   UNL     1      25.189   9.640  78.372  0.00  0.00    +0.000 C 
ATOM     27  O   UNL     1      23.426  10.125  76.815  0.00  0.00    +0.000 OA
ENDBRANCH  24  25
ENDBRANCH   2  24
TORSDOF 7
ENDMDL
MODEL 4
REMARK VINA RESULT:       0.0     17.141     22.087
REMARK  Name = 
REMARK  7 active torsions:
REMARK  status: ('A' for Active; 'I' for Inactive)
REMARK    1  A    between atoms: O_2  and  C_3
REMARK    2  A    between atoms: C_5  and  C_6
REMARK    3  A    between atoms: C_7  and  O_8
REMARK    4  A    between atoms: C_7  and  C_12
REMARK    5  A    between atoms: O_8  and  C_9
REMARK    6  A    between atoms: C_22  and  O_23
REMARK    7  A    between atoms: C_25  and  O_26
REMARK                            x       y       z     vdW  Elec       q    Type
REMARK                         _______ _______ _______ _____ _____    ______ ____
ROOT
ATOM      1  C   UNL     1      19.106   1.560  55.609  0.00  0.00    +0.000 C 
ATOM      2  C   UNL     1      18.791   2.155  54.466  0.00  0.00    +0.000 C 
ENDROOT
BRANCH   2   3
ATOM      3  C   UNL     1      18.840   3.623  54.483  0.00  0.00    +0.000 A 
ATOM      4  C   UNL     1      17.756   4.260  53.892  0.00  0.00    +0.000 A 
ATOM      5  C   UNL     1      17.833   5.583  53.473  0.00  0.00    +0.000 A 
ATOM      6  C   UNL     1      19.071   5.996  52.994  0.00  0.00    +0.000 A 
ATOM      7  C   UNL     1      20.168   5.493  53.681  0.00  0.00    +0.000 A 
ATOM      8  C   UNL     1      20.052   4.289  54.345  0.00  0.00    +0.000 A 
ATOM      9  O   UNL     1      21.230   6.391  53.546  0.00  0.00    +0.000 OA
ATOM     10  C   UNL     1      20.771   7.513  52.798  0.00  0.00    +0.000 C 
ATOM     11  O   UNL     1      19.523   7.080  52.272  0.00  0.00    +0.000 OA
ENDBRANCH   2   3
BRANCH   1  14
ATOM     12  C   UNL     1      16.635   1.247  58.281  0.00  0.00    +0.000 A 
ATOM     13  C   UNL     1      17.153   1.454  57.022  0.00  0.00    +0.000 A 
ATOM     14  C   UNL     1      18.394   2.037  56.802  0.00  0.00    +0.000 A 
ATOM     15  C   UNL     1      19.177   2.224  57.935  0.00  0.00    +0.000 A 
ATOM     16  C   UNL     1      18.684   2.005  59.215  0.00  0.00    +0.000 A 
ATOM     17  C   UNL     1      17.403   1.552  59.384  0.00  0.00    +0.000 A 
BRANCH  12  19
ATOM     18  C   UNL     1      14.236   1.372  58.255  0.00  0.00    +0.000 C 
ATOM     19  O   UNL     1      15.414   0.603  58.471  0.00  0.00    +0.000 OA
ENDBRANCH  12  19
BRANCH  16  20
ATOM     20  O   UNL     1      19.533   1.991  60.325  0.00  0.00    +0.000 OA
ATOM     21  C   UNL     1      19.957   3.265  60.796  0.00  0.00    +0.000 C 
ENDBRANCH  16  20
BRANCH  17  22
ATOM     22  O   UNL     1      16.894   1.381  60.674  0.00  0.00    +0.000 OA
ATOM     23  C   UNL     1      16.224   2.476  61.291  0.00  0.00    +0.000 C 
ENDBRANCH  17  22
ENDBRANCH   1  14
BRANCH   2  24
ATOM     24  O   UNL     1      19.059   1.423  53.305  0.00  0.00    +0.000 OA
BRANCH  24  25
ATOM     25  C   UNL     1      18.193   0.392  52.990  0.00  0.00    +0.000 C 
ATOM     26  C   UNL     1      16.759   0.775  52.802  0.00  0.00    +0.000 C 
ATOM     27  O   UNL     1      18.657  -0.656  52.454  0.00  0.00    +0.000 OA
ENDBRANCH  24  25
ENDBRANCH   2  24
TORSDOF 7
ENDMDL
MODEL 5
REMARK VINA RESULT:       0.0     18.447     21.842
REMARK  Name = 
REMARK  7 active torsions:
REMARK  status: ('A' for Active; 'I' for Inactive)
REMARK    1  A    between atoms: O_2  and  C_3
REMARK    2  A    between atoms: C_5  and  C_6
REMARK    3  A    between atoms: C_7  and  O_8
REMARK    4  A    between atoms: C_7  and  C_12
REMARK    5  A    between atoms: O_8  and  C_9
REMARK    6  A    between atoms: C_22  and  O_23
REMARK    7  A    between atoms: C_25  and  O_26
REMARK                            x       y       z     vdW  Elec       q    Type
REMARK                         _______ _______ _______ _____ _____    ______ ____
ROOT
ATOM      1  C   UNL     1      -0.500  18.223  62.970  0.00  0.00    +0.000 C 
ATOM      2  C   UNL     1       0.324  17.204  63.178  0.00  0.00    +0.000 C 
ENDROOT
BRANCH   2   3
ATOM      3  C   UNL     1       1.688  17.566  63.585  0.00  0.00    +0.000 A 
ATOM      4  C   UNL     1       2.704  16.886  62.926  0.00  0.00    +0.000 A 
ATOM      5  C   UNL     1       3.987  16.812  63.455  0.00  0.00    +0.000 A 
ATOM      6  C   UNL     1       4.070  16.761  64.842  0.00  0.00    +0.000 A 
ATOM      7  C   UNL     1       3.161  17.565  65.517  0.00  0.00    +0.000 A 
ATOM      8  C   UNL     1       1.966  17.888  64.909  0.00  0.00    +0.000 A 
ATOM      9  O   UNL     1       3.703  17.905  66.759  0.00  0.00    +0.000 OA
ATOM     10  C   UNL     1       5.008  17.343  66.845  0.00  0.00    +0.000 C 
ATOM     11  O   UNL     1       5.058  16.439  65.747  0.00  0.00    +0.000 OA
ENDBRANCH   2   3
BRANCH   1  14
ATOM     12  C   UNL     1      -0.415  20.033  59.798  0.00  0.00    +0.000 A 
ATOM     13  C   UNL     1      -0.195  19.032  60.717  0.00  0.00    +0.000 A 
ATOM     14  C   UNL     1      -0.009  19.276  62.071  0.00  0.00    +0.000 A 
ATOM     15  C   UNL     1      -0.251  20.581  62.482  0.00  0.00    +0.000 A 
ATOM     16  C   UNL     1      -0.494  21.606  61.577  0.00  0.00    +0.000 A 
ATOM     17  C   UNL     1      -0.539  21.334  60.236  0.00  0.00    +0.000 A 
BRANCH  12  19
ATOM     18  C   UNL     1       0.462  19.422  57.647  0.00  0.00    +0.000 C 
ATOM     19  O   UNL     1      -0.662  19.751  58.456  0.00  0.00    +0.000 OA
ENDBRANCH  12  19
BRANCH  16  20
ATOM     20  O   UNL     1      -0.943  22.858  62.004  0.00  0.00    +0.000 OA
ATOM     21  C   UNL     1       0.029  23.682  62.637  0.00  0.00    +0.000 C 
ENDBRANCH  16  20
BRANCH  17  22
ATOM     22  O   UNL     1      -0.733  22.376  59.325  0.00  0.00    +0.000 OA
ATOM     23  C   UNL     1       0.410  23.053  58.814  0.00  0.00    +0.000 C 
ENDBRANCH  17  22
ENDBRANCH   1  14
BRANCH   2  24
ATOM     24  O   UNL     1      -0.277  16.012  63.596  0.00  0.00    +0.000 OA
BRANCH  24  25
ATOM     25  C   UNL     1      -0.934  15.263  62.637  0.00  0.00    +0.000 C 
ATOM     26  C   UNL     1      -0.111  14.829  61.467  0.00  0.00    +0.000 C 
ATOM     27  O   UNL     1      -1.975  14.623  62.967  0.00  0.00    +0.000 OA
ENDBRANCH  24  25
ENDBRANCH   2  24
TORSDOF 7
ENDMDL
MODEL 6
REMARK VINA RESULT:       0.0     37.950     40.166
REMARK  Name = 
REMARK  7 active torsions:
REMARK  status: ('A' for Active; 'I' for Inactive)
REMARK    1  A    between atoms: O_2  and  C_3
REMARK    2  A    between atoms: C_5  and  C_6
REMARK    3  A    between atoms: C_7  and  O_8
REMARK    4  A    between atoms: C_7  and  C_12
REMARK    5  A    between atoms: O_8  and  C_9
REMARK    6  A    between atoms: C_22  and  O_23
REMARK    7  A    between atoms: C_25  and  O_26
REMARK                            x       y       z     vdW  Elec       q    Type
REMARK                         _______ _______ _______ _____ _____    ______ ____
ROOT
ATOM      1  C   UNL     1      -8.068   3.550  73.528  0.00  0.00    +0.000 C 
ATOM      2  C   UNL     1      -7.975   2.367  74.121  0.00  0.00    +0.000 C 
ENDROOT
BRANCH   2   3
ATOM      3  C   UNL     1      -9.046   1.414  73.803  0.00  0.00    +0.000 A 
ATOM      4  C   UNL     1      -9.579   0.735  74.891  0.00  0.00    +0.000 A 
ATOM      5  C   UNL     1     -10.285  -0.451  74.730  0.00  0.00    +0.000 A 
ATOM      6  C   UNL     1      -9.860  -1.275  73.694  0.00  0.00    +0.000 A 
ATOM      7  C   UNL     1      -9.475  -0.614  72.535  0.00  0.00    +0.000 A 
ATOM      8  C   UNL     1      -9.010   0.682  72.621  0.00  0.00    +0.000 A 
ATOM      9  O   UNL     1      -9.667  -1.471  71.448  0.00  0.00    +0.000 OA
ATOM     10  C   UNL     1     -10.236  -2.683  71.932  0.00  0.00    +0.000 C 
ATOM     11  O   UNL     1     -10.080  -2.589  73.343  0.00  0.00    +0.000 OA
ENDBRANCH   2   3
BRANCH   1  14
ATOM     12  C   UNL     1     -10.271   6.130  74.881  0.00  0.00    +0.000 A 
ATOM     13  C   UNL     1      -9.518   4.979  74.822  0.00  0.00    +0.000 A 
ATOM     14  C   UNL     1      -9.359   4.238  73.659  0.00  0.00    +0.000 A 
ATOM     15  C   UNL     1      -9.848   4.830  72.501  0.00  0.00    +0.000 A 
ATOM     16  C   UNL     1     -10.594   6.000  72.531  0.00  0.00    +0.000 A 
ATOM     17  C   UNL     1     -10.834   6.626  73.724  0.00  0.00    +0.000 A 
BRANCH  12  19
ATOM     18  C   UNL     1     -11.223   6.402  77.069  0.00  0.00    +0.000 C 
ATOM     19  O   UNL     1     -10.359   6.888  76.047  0.00  0.00    +0.000 OA
ENDBRANCH  12  19
BRANCH  16  20
ATOM     20  O   UNL     1     -10.897   6.696  71.357  0.00  0.00    +0.000 OA
ATOM     21  C   UNL     1     -11.941   6.146  70.562  0.00  0.00    +0.000 C 
ENDBRANCH  16  20
BRANCH  17  22
ATOM     22  O   UNL     1     -11.628   7.776  73.756  0.00  0.00    +0.000 OA
ATOM     23  C   UNL     1     -13.032   7.627  73.939  0.00  0.00    +0.000 C 
ENDBRANCH  17  22
ENDBRANCH   1  14
BRANCH   2  24
ATOM     24  O   UNL     1      -6.679   1.942  74.429  0.00  0.00    +0.000 OA
BRANCH  24  25
ATOM     25  C   UNL     1      -6.064   2.521  75.524  0.00  0.00    +0.000 C 
ATOM     26  C   UNL     1      -6.784   2.383  76.828  0.00  0.00    +0.000 C 
ATOM     27  O   UNL     1      -4.815   2.715  75.494  0.00  0.00    +0.000 OA
ENDBRANCH  24  25
ENDBRANCH   2  24
TORSDOF 7
ENDMDL
MODEL 7
REMARK VINA RESULT:       0.0      6.609     10.786
REMARK  Name = 
REMARK  7 active torsions:
REMARK  status: ('A' for Active; 'I' for Inactive)
REMARK    1  A    between atoms: O_2  and  C_3
REMARK    2  A    between atoms: C_5  and  C_6
REMARK    3  A    between atoms: C_7  and  O_8
REMARK    4  A    between atoms: C_7  and  C_12
REMARK    5  A    between atoms: O_8  and  C_9
REMARK    6  A    between atoms: C_22  and  O_23
REMARK    7  A    between atoms: C_25  and  O_26
REMARK                            x       y       z     vdW  Elec       q    Type
REMARK                         _______ _______ _______ _____ _____    ______ ____
ROOT
ATOM      1  C   UNL     1      22.896  18.205  44.081  0.00  0.00    +0.000 C 
ATOM      2  C   UNL     1      21.717  17.872  44.589  0.00  0.00    +0.000 C 
ENDROOT
BRANCH   2   3
ATOM      3  C   UNL     1      20.553  18.494  43.945  0.00  0.00    +0.000 A 
ATOM      4  C   UNL     1      19.601  19.014  44.813  0.00  0.00    +0.000 A 
ATOM      5  C   UNL     1      18.299  19.260  44.396  0.00  0.00    +0.000 A 
ATOM      6  C   UNL     1      17.788  18.380  43.448  0.00  0.00    +0.000 A 
ATOM      7  C   UNL     1      18.690  17.975  42.473  0.00  0.00    +0.000 A 
ATOM      8  C   UNL     1      20.039  17.970  42.764  0.00  0.00    +0.000 A 
ATOM      9  O   UNL     1      17.978  17.643  41.317  0.00  0.00    +0.000 OA
ATOM     10  C   UNL     1      16.598  17.897  41.556  0.00  0.00    +0.000 C 
ATOM     11  O   UNL     1      16.530  18.094  42.963  0.00  0.00    +0.000 OA
ENDBRANCH   2   3
BRANCH   1  14
ATOM     12  C   UNL     1      24.479  21.352  45.048  0.00  0.00    +0.000 A 
ATOM     13  C   UNL     1      23.618  20.278  45.082  0.00  0.00    +0.000 A 
ATOM     14  C   UNL     1      23.154  19.644  43.938  0.00  0.00    +0.000 A 
ATOM     15  C   UNL     1      23.764  20.031  42.751  0.00  0.00    +0.000 A 
ATOM     16  C   UNL     1      24.651  21.099  42.692  0.00  0.00    +0.000 A 
ATOM     17  C   UNL     1      24.976  21.778  43.835  0.00  0.00    +0.000 A 
BRANCH  12  19
ATOM     18  C   UNL     1      24.104  22.796  46.931  0.00  0.00    +0.000 C 
ATOM     19  O   UNL     1      24.976  21.927  46.216  0.00  0.00    +0.000 OA
ENDBRANCH  12  19
BRANCH  16  20
ATOM     20  O   UNL     1      25.415  21.344  41.548  0.00  0.00    +0.000 OA
ATOM     21  C   UNL     1      24.706  21.867  40.430  0.00  0.00    +0.000 C 
ENDBRANCH  16  20
BRANCH  17  22
ATOM     22  O   UNL     1      25.829  22.883  43.765  0.00  0.00    +0.000 OA
ATOM     23  C   UNL     1      25.257  24.170  43.556  0.00  0.00    +0.000 C 
ENDBRANCH  17  22
ENDBRANCH   1  14
BRANCH   2  24
ATOM     24  O   UNL     1      21.644  16.606  45.178  0.00  0.00    +0.000 OA
BRANCH  24  25
ATOM     25  C   UNL     1      22.202  16.458  46.435  0.00  0.00    +0.000 C 
ATOM     26  C   UNL     1      21.653  17.347  47.505  0.00  0.00    +0.000 C 
ATOM     27  O   UNL     1      22.763  15.363  46.731  0.00  0.00    +0.000 OA
ENDBRANCH  24  25
ENDBRANCH   2  24
TORSDOF 7
ENDMDL
MODEL 8
REMARK VINA RESULT:       0.0      3.034      3.577
REMARK  Name = 
REMARK  7 active torsions:
REMARK  status: ('A' for Active; 'I' for Inactive)
REMARK    1  A    between atoms: O_2  and  C_3
REMARK    2  A    between atoms: C_5  and  C_6
REMARK    3  A    between atoms: C_7  and  O_8
REMARK    4  A    between atoms: C_7  and  C_12
REMARK    5  A    between atoms: O_8  and  C_9
REMARK    6  A    between atoms: C_22  and  O_23
REMARK    7  A    between atoms: C_25  and  O_26
REMARK                            x       y       z     vdW  Elec       q    Type
REMARK                         _______ _______ _______ _____ _____    ______ ____
ROOT
ATOM      1  C   UNL     1      10.905  20.744  44.342  0.00  0.00    +0.000 C 
ATOM      2  C   UNL     1      10.178  19.957  43.561  0.00  0.00    +0.000 C 
ENDROOT
BRANCH   2   3
ATOM      3  C   UNL     1      10.857  19.455  42.359  0.00  0.00    +0.000 A 
ATOM      4  C   UNL     1      10.121  19.534  41.184  0.00  0.00    +0.000 A 
ATOM      5  C   UNL     1      10.441  18.760  40.076  0.00  0.00    +0.000 A 
ATOM      6  C   UNL     1      10.953  17.496  40.345  0.00  0.00    +0.000 A 
ATOM      7  C   UNL     1      11.823  17.430  41.426  0.00  0.00    +0.000 A 
ATOM      8  C   UNL     1      11.710  18.360  42.439  0.00  0.00    +0.000 A 
ATOM      9  O   UNL     1      12.698  16.358  41.230  0.00  0.00    +0.000 OA
ATOM     10  C   UNL     1      12.402  15.767  39.969  0.00  0.00    +0.000 C 
ATOM     11  O   UNL     1      11.156  16.349  39.608  0.00  0.00    +0.000 OA
ENDBRANCH   2   3
BRANCH   1  14
ATOM     12  C   UNL     1      11.335  24.286  43.558  0.00  0.00    +0.000 A 
ATOM     13  C   UNL     1      10.803  23.017  43.536  0.00  0.00    +0.000 A 
ATOM     14  C   UNL     1      11.575  21.871  43.678  0.00  0.00    +0.000 A 
ATOM     15  C   UNL     1      12.900  22.083  44.041  0.00  0.00    +0.000 A 
ATOM     16  C   UNL     1      13.455  23.355  44.089  0.00  0.00    +0.000 A 
ATOM     17  C   UNL     1      12.680  24.449  43.812  0.00  0.00    +0.000 A 
BRANCH  12  19
ATOM     18  C   UNL     1      10.033  25.769  42.188  0.00  0.00    +0.000 C 
ATOM     19  O   UNL     1      10.527  25.418  43.476  0.00  0.00    +0.000 OA
ENDBRANCH  12  19
BRANCH  16  20
ATOM     20  O   UNL     1      14.715  23.575  44.655  0.00  0.00    +0.000 OA
ATOM     21  C   UNL     1      15.828  23.205  43.850  0.00  0.00    +0.000 C 
ENDBRANCH  16  20
BRANCH  17  22
ATOM     22  O   UNL     1      13.255  25.723  43.811  0.00  0.00    +0.000 OA
ATOM     23  C   UNL     1      13.800  26.222  42.594  0.00  0.00    +0.000 C 
ENDBRANCH  17  22
ENDBRANCH   1  14
BRANCH   2  24
ATOM     24  O   UNL     1       9.177  19.221  44.203  0.00  0.00    +0.000 OA
BRANCH  24  25
ATOM     25  C   UNL     1       8.021  19.894  44.555  0.00  0.00    +0.000 C 
ATOM     26  C   UNL     1       7.274  20.545  43.435  0.00  0.00    +0.000 C 
ATOM     27  O   UNL     1       7.429  19.575  45.627  0.00  0.00    +0.000 OA
ENDBRANCH  24  25
ENDBRANCH   2  24
TORSDOF 7
ENDMDL
MODEL 9
REMARK VINA RESULT:       0.0     20.262     22.725
REMARK  Name = 
REMARK  7 active torsions:
REMARK  status: ('A' for Active; 'I' for Inactive)
REMARK    1  A    between atoms: O_2  and  C_3
REMARK    2  A    between atoms: C_5  and  C_6
REMARK    3  A    between atoms: C_7  and  O_8
REMARK    4  A    between atoms: C_7  and  C_12
REMARK    5  A    between atoms: O_8  and  C_9
REMARK    6  A    between atoms: C_22  and  O_23
REMARK    7  A    between atoms: C_25  and  O_26
REMARK                            x       y       z     vdW  Elec       q    Type
REMARK                         _______ _______ _______ _____ _____    ______ ____
ROOT
ATOM      1  C   UNL     1      14.498  27.792  64.457  0.00  0.00    +0.000 C 
ATOM      2  C   UNL     1      14.463  28.940  65.119  0.00  0.00    +0.000 C 
ENDROOT
BRANCH   2   3
ATOM      3  C   UNL     1      13.127  29.401  65.517  0.00  0.00    +0.000 A 
ATOM      4  C   UNL     1      12.862  30.742  65.265  0.00  0.00    +0.000 A 
ATOM      5  C   UNL     1      11.840  31.414  65.924  0.00  0.00    +0.000 A 
ATOM      6  C   UNL     1      11.601  31.021  67.236  0.00  0.00    +0.000 A 
ATOM      7  C   UNL     1      11.704  29.656  67.470  0.00  0.00    +0.000 A 
ATOM      8  C   UNL     1      12.516  28.892  66.657  0.00  0.00    +0.000 A 
ATOM      9  O   UNL     1      10.891  29.327  68.558  0.00  0.00    +0.000 OA
ATOM     10  C   UNL     1      10.220  30.508  68.985  0.00  0.00    +0.000 C 
ATOM     11  O   UNL     1      10.904  31.550  68.300  0.00  0.00    +0.000 OA
ENDBRANCH   2   3
BRANCH   1  14
ATOM     12  C   UNL     1      13.794  27.720  60.873  0.00  0.00    +0.000 A 
ATOM     13  C   UNL     1      14.104  28.225  62.116  0.00  0.00    +0.000 A 
ATOM     14  C   UNL     1      13.604  27.689  63.296  0.00  0.00    +0.000 A 
ATOM     15  C   UNL     1      12.921  26.486  63.164  0.00  0.00    +0.000 A 
ATOM     16  C   UNL     1      12.612  25.946  61.923  0.00  0.00    +0.000 A 
ATOM     17  C   UNL     1      13.018  26.584  60.782  0.00  0.00    +0.000 A 
BRANCH  12  19
ATOM     18  C   UNL     1      13.846  29.479  59.238  0.00  0.00    +0.000 C 
ATOM     19  O   UNL     1      14.361  28.239  59.711  0.00  0.00    +0.000 OA
ENDBRANCH  12  19
BRANCH  16  20
ATOM     20  O   UNL     1      12.119  24.644  61.802  0.00  0.00    +0.000 OA
ATOM     21  C   UNL     1      10.772  24.451  62.218  0.00  0.00    +0.000 C 
ENDBRANCH  16  20
BRANCH  17  22
ATOM     22  O   UNL     1      12.662  26.065  59.534  0.00  0.00    +0.000 OA
ATOM     23  C   UNL     1      11.439  26.494  58.944  0.00  0.00    +0.000 C 
ENDBRANCH  17  22
ENDBRANCH   1  14
BRANCH   2  24
ATOM     24  O   UNL     1      15.601  29.240  65.876  0.00  0.00    +0.000 OA
BRANCH  24  25
ATOM     25  C   UNL     1      16.715  29.695  65.193  0.00  0.00    +0.000 C 
ATOM     26  C   UNL     1      16.527  30.941  64.388  0.00  0.00    +0.000 C 
ATOM     27  O   UNL     1      17.864  29.358  65.602  0.00  0.00    +0.000 OA
ENDBRANCH  24  25
ENDBRANCH   2  24
TORSDOF 7
ENDMDL
MODEL 10
REMARK VINA RESULT:       0.0     37.343     40.072
REMARK  Name = 
REMARK  7 active torsions:
REMARK  status: ('A' for Active; 'I' for Inactive)
REMARK    1  A    between atoms: O_2  and  C_3
REMARK    2  A    between atoms: C_5  and  C_6
REMARK    3  A    between atoms: C_7  and  O_8
REMARK    4  A    between atoms: C_7  and  C_12
REMARK    5  A    between atoms: O_8  and  C_9
REMARK    6  A    between atoms: C_22  and  O_23
REMARK    7  A    between atoms: C_25  and  O_26
REMARK                            x       y       z     vdW  Elec       q    Type
REMARK                         _______ _______ _______ _____ _____    ______ ____
ROOT
ATOM      1  C   UNL     1      -7.905  -0.401  70.331  0.00  0.00    +0.000 C 
ATOM      2  C   UNL     1      -7.462   0.116  71.469  0.00  0.00    +0.000 C 
ENDROOT
BRANCH   2   3
ATOM      3  C   UNL     1      -6.956  -0.852  72.450  0.00  0.00    +0.000 A 
ATOM      4  C   UNL     1      -7.391  -0.659  73.755  0.00  0.00    +0.000 A 
ATOM      5  C   UNL     1      -6.712  -1.212  74.834  0.00  0.00    +0.000 A 
ATOM      6  C   UNL     1      -5.332  -1.307  74.699  0.00  0.00    +0.000 A 
ATOM      7  C   UNL     1      -4.886  -1.661  73.432  0.00  0.00    +0.000 A 
ATOM      8  C   UNL     1      -5.668  -1.363  72.335  0.00  0.00    +0.000 A 
ATOM      9  O   UNL     1      -3.650  -2.301  73.557  0.00  0.00    +0.000 OA
ATOM     10  C   UNL     1      -3.336  -2.397  74.942  0.00  0.00    +0.000 C 
ATOM     11  O   UNL     1      -4.283  -1.536  75.563  0.00  0.00    +0.000 OA
ENDBRANCH   2   3
BRANCH   1  14
ATOM     12  C   UNL     1     -11.271  -1.810  70.156  0.00  0.00    +0.000 A 
ATOM     13  C   UNL     1     -10.197  -1.092  70.632  0.00  0.00    +0.000 A 
ATOM     14  C   UNL     1      -8.880  -1.493  70.454  0.00  0.00    +0.000 A 
ATOM     15  C   UNL     1      -8.693  -2.568  69.594  0.00  0.00    +0.000 A 
ATOM     16  C   UNL     1      -9.760  -3.298  69.085  0.00  0.00    +0.000 A 
ATOM     17  C   UNL     1     -11.043  -2.938  69.397  0.00  0.00    +0.000 A 
BRANCH  12  19
ATOM     18  C   UNL     1     -13.186  -1.505  71.573  0.00  0.00    +0.000 C 
ATOM     19  O   UNL     1     -12.578  -1.349  70.296  0.00  0.00    +0.000 OA
ENDBRANCH  12  19
BRANCH  16  20
ATOM     20  O   UNL     1      -9.575  -4.233  68.063  0.00  0.00    +0.000 OA
ATOM     21  C   UNL     1      -8.935  -5.446  68.442  0.00  0.00    +0.000 C 
ENDBRANCH  16  20
BRANCH  17  22
ATOM     22  O   UNL     1     -12.111  -3.705  68.925  0.00  0.00    +0.000 OA
ATOM     23  C   UNL     1     -12.572  -4.792  69.720  0.00  0.00    +0.000 C 
ENDBRANCH  17  22
ENDBRANCH   1  14
BRANCH   2  24
ATOM     24  O   UNL     1      -6.953   1.417  71.388  0.00  0.00    +0.000 OA
BRANCH  24  25
ATOM     25  C   UNL     1      -7.867   2.452  71.303  0.00  0.00    +0.000 C 
ATOM     26  C   UNL     1      -8.861   2.542  72.416  0.00  0.00    +0.000 C 
ATOM     27  O   UNL     1      -7.574   3.472  70.615  0.00  0.00    +0.000 OA
ENDBRANCH  24  25
ENDBRANCH   2  24
TORSDOF 7
ENDMDL
