REMARK  Name = 
REMARK  7 active torsions:
REMARK  status: ('A' for Active; 'I' for Inactive)
REMARK    1  A    between atoms: O_2  and  C_3
REMARK    2  A    between atoms: C_6  and  C_7
REMARK    3  A    between atoms: C_7  and  C_8
REMARK    4  A    between atoms: C_10  and  C_11
REMARK    5  A    between atoms: C_13  and  O_14
REMARK    6  A    between atoms: C_16  and  O_17
REMARK    7  A    between atoms: C_19  and  O_20
REMARK                            x       y       z     vdW  Elec       q    Type
REMARK                         _______ _______ _______ _____ _____    ______ ____
ROOT
ATOM      1  C   UNL     1       1.312  -0.094  -1.914  0.00  0.00    +0.000 C 
ATOM      2  C   UNL     1       0.068  -0.556  -1.863  0.00  0.00    +0.000 C 
ENDROOT
BRANCH   1   6
ATOM      3  C   UNL     1       4.186  -0.014   1.156  0.00  0.00    +0.000 A 
ATOM      4  C   UNL     1       4.405  -0.751  -0.002  0.00  0.00    +0.000 A 
ATOM      5  C   UNL     1       3.417  -0.807  -0.978  0.00  0.00    +0.000 A 
ATOM      6  C   UNL     1       2.130  -0.343  -0.735  0.00  0.00    +0.000 A 
ATOM      7  C   UNL     1       1.859   0.215   0.505  0.00  0.00    +0.000 A 
ATOM      8  C   UNL     1       2.853   0.211   1.476  0.00  0.00    +0.000 A 
BRANCH   3  10
ATOM      9  C   UNL     1       5.623   0.743   3.014  0.00  0.00    +0.000 C 
ATOM     10  O   UNL     1       5.210   0.790   1.668  0.00  0.00    +0.000 OA
ENDBRANCH   3  10
ENDBRANCH   1   6
BRANCH   2  11
ATOM     11  C   UNL     1      -0.714  -0.202  -0.670  0.00  0.00    +0.000 A 
ATOM     12  C   UNL     1      -1.605   0.852  -0.835  0.00  0.00    +0.000 A 
ATOM     13  C   UNL     1      -2.851   0.878  -0.240  0.00  0.00    +0.000 A 
ATOM     14  C   UNL     1      -3.144  -0.037   0.734  0.00  0.00    +0.000 A 
ATOM     15  C   UNL     1      -2.408  -1.207   0.753  0.00  0.00    +0.000 A 
ATOM     16  C   UNL     1      -1.124  -1.185   0.222  0.00  0.00    +0.000 A 
BRANCH  13  17
ATOM     17  O   UNL     1      -3.788   1.882  -0.503  0.00  0.00    +0.000 OA
ATOM     18  C   UNL     1      -3.457   3.235  -0.258  0.00  0.00    +0.000 C 
ENDBRANCH  13  17
BRANCH  14  19
ATOM     19  O   UNL     1      -4.371  -0.015   1.359  0.00  0.00    +0.000 OA
ATOM     20  C   UNL     1      -4.774   1.162   2.039  0.00  0.00    +0.000 C 
ENDBRANCH  14  19
BRANCH  15  21
ATOM     21  O   UNL     1      -2.902  -2.355   1.378  0.00  0.00    +0.000 OA
ATOM     22  C   UNL     1      -4.216  -2.804   1.170  0.00  0.00    +0.000 C 
ENDBRANCH  15  21
ENDBRANCH   2  11
BRANCH   1  23
ATOM     23  C   UNL     1       1.880   0.162  -3.219  0.00  0.00    +0.000 C 
ATOM     24  N   UNL     1       2.411   0.240  -4.254  0.00  0.00    +0.000 NA
ENDBRANCH   1  23
TORSDOF 7
