MODEL 1
REMARK VINA RESULT:      -0.0      0.000      0.000
REMARK  Name = 
REMARK  7 active torsions:
REMARK  status: ('A' for Active; 'I' for Inactive)
REMARK    1  A    between atoms: O_2  and  C_3
REMARK    2  A    between atoms: C_6  and  C_7
REMARK    3  A    between atoms: C_7  and  C_8
REMARK    4  A    between atoms: C_10  and  C_11
REMARK    5  A    between atoms: C_13  and  O_14
REMARK    6  A    between atoms: C_16  and  O_17
REMARK    7  A    between atoms: C_19  and  O_20
REMARK                            x       y       z     vdW  Elec       q    Type
REMARK                         _______ _______ _______ _____ _____    ______ ____
ROOT
ATOM      1  C   UNL     1      20.785  12.432  52.905  0.00  0.00    +0.000 C 
ATOM      2  C   UNL     1      21.086  12.614  51.625  0.00  0.00    +0.000 C 
ENDROOT
BRANCH   1   6
ATOM      3  C   UNL     1      17.692  14.307  55.052  0.00  0.00    +0.000 A 
ATOM      4  C   UNL     1      17.443  13.714  53.819  0.00  0.00    +0.000 A 
ATOM      5  C   UNL     1      18.492  13.150  53.103  0.00  0.00    +0.000 A 
ATOM      6  C   UNL     1      19.816  13.361  53.468  0.00  0.00    +0.000 A 
ATOM      7  C   UNL     1      20.069  14.128  54.595  0.00  0.00    +0.000 A 
ATOM      8  C   UNL     1      19.002  14.720  55.260  0.00  0.00    +0.000 A 
BRANCH   3  10
ATOM      9  C   UNL     1      16.568  12.802  56.651  0.00  0.00    +0.000 C 
ATOM     10  O   UNL     1      16.815  14.082  56.118  0.00  0.00    +0.000 OA
ENDBRANCH   3  10
ENDBRANCH   1   6
BRANCH   2  11
ATOM     11  C   UNL     1      21.464  13.978  51.228  0.00  0.00    +0.000 A 
ATOM     12  C   UNL     1      22.804  14.299  51.408  0.00  0.00    +0.000 A 
ATOM     13  C   UNL     1      23.510  15.088  50.520  0.00  0.00    +0.000 A 
ATOM     14  C   UNL     1      22.829  15.778  49.555  0.00  0.00    +0.000 A 
ATOM     15  C   UNL     1      21.576  15.313  49.201  0.00  0.00    +0.000 A 
ATOM     16  C   UNL     1      20.852  14.592  50.143  0.00  0.00    +0.000 A 
BRANCH  13  17
ATOM     17  O   UNL     1      24.885  15.310  50.643  0.00  0.00    +0.000 OA
ATOM     18  C   UNL     1      25.376  16.116  51.696  0.00  0.00    +0.000 C 
ENDBRANCH  13  17
BRANCH  14  19
ATOM     19  O   UNL     1      23.509  16.589  48.674  0.00  0.00    +0.000 OA
ATOM     20  C   UNL     1      23.468  17.994  48.863  0.00  0.00    +0.000 C 
ENDBRANCH  14  19
BRANCH  15  21
ATOM     21  O   UNL     1      21.012  15.642  47.966  0.00  0.00    +0.000 OA
ATOM     22  C   UNL     1      19.974  16.581  47.853  0.00  0.00    +0.000 C 
ENDBRANCH  15  21
ENDBRANCH   2  11
BRANCH   1  23
ATOM     23  C   UNL     1      21.038  11.127  53.475  0.00  0.00    +0.000 C 
ATOM     24  N   UNL     1      21.134  10.107  54.032  0.00  0.00    +0.000 NA
ENDBRANCH   1  23
TORSDOF 7
ENDMDL
MODEL 2
REMARK VINA RESULT:      -0.0     30.646     32.870
REMARK  Name = 
REMARK  7 active torsions:
REMARK  status: ('A' for Active; 'I' for Inactive)
REMARK    1  A    between atoms: O_2  and  C_3
REMARK    2  A    between atoms: C_6  and  C_7
REMARK    3  A    between atoms: C_7  and  C_8
REMARK    4  A    between atoms: C_10  and  C_11
REMARK    5  A    between atoms: C_13  and  O_14
REMARK    6  A    between atoms: C_16  and  O_17
REMARK    7  A    between atoms: C_19  and  O_20
REMARK                            x       y       z     vdW  Elec       q    Type
REMARK                         _______ _______ _______ _____ _____    ______ ____
ROOT
ATOM      1  C   UNL     1       9.140  28.916  80.108  0.00  0.00    +0.000 C 
ATOM      2  C   UNL     1      10.250  29.092  80.815  0.00  0.00    +0.000 C 
ENDROOT
BRANCH   1   6
ATOM      3  C   UNL     1       7.167  25.272  79.382  0.00  0.00    +0.000 A 
ATOM      4  C   UNL     1       7.530  25.638  80.673  0.00  0.00    +0.000 A 
ATOM      5  C   UNL     1       8.230  26.820  80.881  0.00  0.00    +0.000 A 
ATOM      6  C   UNL     1       8.782  27.533  79.824  0.00  0.00    +0.000 A 
ATOM      7  C   UNL     1       8.586  27.052  78.538  0.00  0.00    +0.000 A 
ATOM      8  C   UNL     1       7.925  25.841  78.366  0.00  0.00    +0.000 A 
BRANCH   3  10
ATOM      9  C   UNL     1       4.742  25.564  79.029  0.00  0.00    +0.000 C 
ATOM     10  O   UNL     1       5.890  24.755  79.143  0.00  0.00    +0.000 OA
ENDBRANCH   3  10
ENDBRANCH   1   6
BRANCH   2  11
ATOM     11  C   UNL     1      11.449  28.389  80.336  0.00  0.00    +0.000 A 
ATOM     12  C   UNL     1      12.159  29.040  79.334  0.00  0.00    +0.000 A 
ATOM     13  C   UNL     1      13.538  29.030  79.266  0.00  0.00    +0.000 A 
ATOM     14  C   UNL     1      14.238  28.163  80.061  0.00  0.00    +0.000 A 
ATOM     15  C   UNL     1      13.611  27.694  81.201  0.00  0.00    +0.000 A 
ATOM     16  C   UNL     1      12.223  27.637  81.211  0.00  0.00    +0.000 A 
BRANCH  13  17
ATOM     17  O   UNL     1      14.250  29.782  78.327  0.00  0.00    +0.000 OA
ATOM     18  C   UNL     1      14.210  29.421  76.960  0.00  0.00    +0.000 C 
ENDBRANCH  13  17
BRANCH  14  19
ATOM     19  O   UNL     1      15.613  28.117  79.994  0.00  0.00    +0.000 OA
ATOM     20  C   UNL     1      16.230  27.047  79.299  0.00  0.00    +0.000 C 
ENDBRANCH  14  19
BRANCH  15  21
ATOM     21  O   UNL     1      14.354  27.198  82.275  0.00  0.00    +0.000 OA
ATOM     22  C   UNL     1      14.480  25.820  82.514  0.00  0.00    +0.000 C 
ENDBRANCH  15  21
ENDBRANCH   2  11
BRANCH   1  23
ATOM     23  C   UNL     1       8.172  29.991  80.099  0.00  0.00    +0.000 C 
ATOM     24  N   UNL     1       7.291  30.753  80.064  0.00  0.00    +0.000 NA
ENDBRANCH   1  23
TORSDOF 7
ENDMDL
MODEL 3
REMARK VINA RESULT:      -0.0     38.332     40.624
REMARK  Name = 
REMARK  7 active torsions:
REMARK  status: ('A' for Active; 'I' for Inactive)
REMARK    1  A    between atoms: O_2  and  C_3
REMARK    2  A    between atoms: C_6  and  C_7
REMARK    3  A    between atoms: C_7  and  C_8
REMARK    4  A    between atoms: C_10  and  C_11
REMARK    5  A    between atoms: C_13  and  O_14
REMARK    6  A    between atoms: C_16  and  O_17
REMARK    7  A    between atoms: C_19  and  O_20
REMARK                            x       y       z     vdW  Elec       q    Type
REMARK                         _______ _______ _______ _____ _____    ______ ____
ROOT
ATOM      1  C   UNL     1     -11.585  39.773  45.178  0.00  0.00    +0.000 C 
ATOM      2  C   UNL     1     -10.771  39.074  44.396  0.00  0.00    +0.000 C 
ENDROOT
BRANCH   1   6
ATOM      3  C   UNL     1     -11.759  39.657  49.379  0.00  0.00    +0.000 A 
ATOM      4  C   UNL     1     -10.545  39.830  48.723  0.00  0.00    +0.000 A 
ATOM      5  C   UNL     1     -10.506  39.809  47.334  0.00  0.00    +0.000 A 
ATOM      6  C   UNL     1     -11.598  39.391  46.583  0.00  0.00    +0.000 A 
ATOM      7  C   UNL     1     -12.752  39.023  47.257  0.00  0.00    +0.000 A 
ATOM      8  C   UNL     1     -12.744  39.007  48.646  0.00  0.00    +0.000 A 
BRANCH   3  10
ATOM      9  C   UNL     1     -12.549  41.783  50.351  0.00  0.00    +0.000 C 
ATOM     10  O   UNL     1     -12.072  40.463  50.478  0.00  0.00    +0.000 OA
ENDBRANCH   3  10
ENDBRANCH   1   6
BRANCH   2  11
ATOM     11  C   UNL     1     -10.878  37.610  44.480  0.00  0.00    +0.000 A 
ATOM     12  C   UNL     1     -11.876  37.041  43.698  0.00  0.00    +0.000 A 
ATOM     13  C   UNL     1     -11.719  35.835  43.045  0.00  0.00    +0.000 A 
ATOM     14  C   UNL     1     -10.645  35.045  43.353  0.00  0.00    +0.000 A 
ATOM     15  C   UNL     1      -9.543  35.658  43.920  0.00  0.00    +0.000 A 
ATOM     16  C   UNL     1      -9.741  36.828  44.643  0.00  0.00    +0.000 A 
BRANCH  13  17
ATOM     17  O   UNL     1     -12.680  35.325  42.167  0.00  0.00    +0.000 OA
ATOM     18  C   UNL     1     -13.915  34.856  42.671  0.00  0.00    +0.000 C 
ENDBRANCH  13  17
BRANCH  14  19
ATOM     19  O   UNL     1     -10.480  33.827  42.733  0.00  0.00    +0.000 OA
ATOM     20  C   UNL     1     -10.803  32.644  43.445  0.00  0.00    +0.000 C 
ENDBRANCH  14  19
BRANCH  15  21
ATOM     21  O   UNL     1      -8.279  35.067  43.852  0.00  0.00    +0.000 OA
ATOM     22  C   UNL     1      -7.712  34.404  44.953  0.00  0.00    +0.000 C 
ENDBRANCH  15  21
ENDBRANCH   2  11
BRANCH   1  23
ATOM     23  C   UNL     1     -11.996  41.082  44.720  0.00  0.00    +0.000 C 
ATOM     24  N   UNL     1     -12.346  42.171  44.495  0.00  0.00    +0.000 NA
ENDBRANCH   1  23
TORSDOF 7
ENDMDL
MODEL 4
REMARK VINA RESULT:      -0.0     32.399     34.791
REMARK  Name = 
REMARK  7 active torsions:
REMARK  status: ('A' for Active; 'I' for Inactive)
REMARK    1  A    between atoms: O_2  and  C_3
REMARK    2  A    between atoms: C_6  and  C_7
REMARK    3  A    between atoms: C_7  and  C_8
REMARK    4  A    between atoms: C_10  and  C_11
REMARK    5  A    between atoms: C_13  and  O_14
REMARK    6  A    between atoms: C_16  and  O_17
REMARK    7  A    between atoms: C_19  and  O_20
REMARK                            x       y       z     vdW  Elec       q    Type
REMARK                         _______ _______ _______ _____ _____    ______ ____
ROOT
ATOM      1  C   UNL     1     -10.329   4.662  56.292  0.00  0.00    +0.000 C 
ATOM      2  C   UNL     1     -11.272   5.455  56.785  0.00  0.00    +0.000 C 
ENDROOT
BRANCH   1   6
ATOM      3  C   UNL     1     -10.369   0.457  56.197  0.00  0.00    +0.000 A 
ATOM      4  C   UNL     1     -11.458   1.188  55.736  0.00  0.00    +0.000 A 
ATOM      5  C   UNL     1     -11.444   2.574  55.829  0.00  0.00    +0.000 A 
ATOM      6  C   UNL     1     -10.481   3.242  56.577  0.00  0.00    +0.000 A 
ATOM      7  C   UNL     1      -9.503   2.487  57.207  0.00  0.00    +0.000 A 
ATOM      8  C   UNL     1      -9.574   1.101  57.136  0.00  0.00    +0.000 A 
BRANCH   3  10
ATOM      9  C   UNL     1      -9.060  -0.459  54.317  0.00  0.00    +0.000 C 
ATOM     10  O   UNL     1      -9.890  -0.620  55.444  0.00  0.00    +0.000 OA
ENDBRANCH   3  10
ENDBRANCH   1   6
BRANCH   2  11
ATOM     11  C   UNL     1     -11.581   5.297  58.214  0.00  0.00    +0.000 A 
ATOM     12  C   UNL     1     -10.748   5.994  59.082  0.00  0.00    +0.000 A 
ATOM     13  C   UNL     1     -11.208   6.598  60.235  0.00  0.00    +0.000 A 
ATOM     14  C   UNL     1     -12.471   6.315  60.678  0.00  0.00    +0.000 A 
ATOM     15  C   UNL     1     -13.381   5.841  59.752  0.00  0.00    +0.000 A 
ATOM     16  C   UNL     1     -12.896   5.162  58.641  0.00  0.00    +0.000 A 
BRANCH  13  17
ATOM     17  O   UNL     1     -10.392   7.396  61.042  0.00  0.00    +0.000 OA
ATOM     18  C   UNL     1      -9.357   6.802  61.801  0.00  0.00    +0.000 C 
ENDBRANCH  13  17
BRANCH  14  19
ATOM     19  O   UNL     1     -12.943   6.886  61.839  0.00  0.00    +0.000 OA
ATOM     20  C   UNL     1     -12.992   6.103  63.019  0.00  0.00    +0.000 C 
ENDBRANCH  14  19
BRANCH  15  21
ATOM     21  O   UNL     1     -14.756   5.952  59.975  0.00  0.00    +0.000 OA
ATOM     22  C   UNL     1     -15.530   4.855  60.387  0.00  0.00    +0.000 C 
ENDBRANCH  15  21
ENDBRANCH   2  11
BRANCH   1  23
ATOM     23  C   UNL     1      -9.551   5.156  55.177  0.00  0.00    +0.000 C 
ATOM     24  N   UNL     1      -8.903   5.411  54.242  0.00  0.00    +0.000 NA
ENDBRANCH   1  23
TORSDOF 7
ENDMDL
MODEL 5
REMARK VINA RESULT:      -0.0     27.583     30.211
REMARK  Name = 
REMARK  7 active torsions:
REMARK  status: ('A' for Active; 'I' for Inactive)
REMARK    1  A    between atoms: O_2  and  C_3
REMARK    2  A    between atoms: C_6  and  C_7
REMARK    3  A    between atoms: C_7  and  C_8
REMARK    4  A    between atoms: C_10  and  C_11
REMARK    5  A    between atoms: C_13  and  O_14
REMARK    6  A    between atoms: C_16  and  O_17
REMARK    7  A    between atoms: C_19  and  O_20
REMARK                            x       y       z     vdW  Elec       q    Type
REMARK                         _______ _______ _______ _____ _____    ______ ____
ROOT
ATOM      1  C   UNL     1      14.908  36.328  70.340  0.00  0.00    +0.000 C 
ATOM      2  C   UNL     1      15.497  36.002  71.485  0.00  0.00    +0.000 C 
ENDROOT
BRANCH   1   6
ATOM      3  C   UNL     1      16.501  35.886  66.472  0.00  0.00    +0.000 A 
ATOM      4  C   UNL     1      16.512  34.824  67.370  0.00  0.00    +0.000 A 
ATOM      5  C   UNL     1      16.031  35.011  68.660  0.00  0.00    +0.000 A 
ATOM      6  C   UNL     1      15.754  36.279  69.155  0.00  0.00    +0.000 A 
ATOM      7  C   UNL     1      15.938  37.365  68.312  0.00  0.00    +0.000 A 
ATOM      8  C   UNL     1      16.468  37.150  67.046  0.00  0.00    +0.000 A 
BRANCH   3  10
ATOM      9  C   UNL     1      14.752  35.581  64.758  0.00  0.00    +0.000 C 
ATOM     10  O   UNL     1      16.103  35.668  65.149  0.00  0.00    +0.000 OA
ENDBRANCH   3  10
ENDBRANCH   1   6
BRANCH   2  11
ATOM     11  C   UNL     1      16.763  36.685  71.787  0.00  0.00    +0.000 A 
ATOM     12  C   UNL     1      16.636  37.937  72.379  0.00  0.00    +0.000 A 
ATOM     13  C   UNL     1      17.494  38.390  73.362  0.00  0.00    +0.000 A 
ATOM     14  C   UNL     1      18.651  37.701  73.606  0.00  0.00    +0.000 A 
ATOM     15  C   UNL     1      18.694  36.372  73.229  0.00  0.00    +0.000 A 
ATOM     16  C   UNL     1      17.880  35.959  72.181  0.00  0.00    +0.000 A 
BRANCH  13  17
ATOM     17  O   UNL     1      17.293  39.598  74.036  0.00  0.00    +0.000 OA
ATOM     18  C   UNL     1      17.476  40.823  73.354  0.00  0.00    +0.000 C 
ENDBRANCH  13  17
BRANCH  14  19
ATOM     19  O   UNL     1      19.534  38.147  74.564  0.00  0.00    +0.000 OA
ATOM     20  C   UNL     1      20.716  38.812  74.151  0.00  0.00    +0.000 C 
ENDBRANCH  14  19
BRANCH  15  21
ATOM     21  O   UNL     1      19.603  35.488  73.816  0.00  0.00    +0.000 OA
ATOM     22  C   UNL     1      20.773  35.081  73.155  0.00  0.00    +0.000 C 
ENDBRANCH  15  21
ENDBRANCH   2  11
BRANCH   1  23
ATOM     23  C   UNL     1      13.467  36.230  70.275  0.00  0.00    +0.000 C 
ATOM     24  N   UNL     1      12.322  36.133  70.076  0.00  0.00    +0.000 NA
ENDBRANCH   1  23
TORSDOF 7
ENDMDL
MODEL 6
REMARK VINA RESULT:      -0.0     10.941     15.379
REMARK  Name = 
REMARK  7 active torsions:
REMARK  status: ('A' for Active; 'I' for Inactive)
REMARK    1  A    between atoms: O_2  and  C_3
REMARK    2  A    between atoms: C_6  and  C_7
REMARK    3  A    between atoms: C_7  and  C_8
REMARK    4  A    between atoms: C_10  and  C_11
REMARK    5  A    between atoms: C_13  and  O_14
REMARK    6  A    between atoms: C_16  and  O_17
REMARK    7  A    between atoms: C_19  and  O_20
REMARK                            x       y       z     vdW  Elec       q    Type
REMARK                         _______ _______ _______ _____ _____    ______ ____
ROOT
ATOM      1  C   UNL     1      11.284  15.146  59.879  0.00  0.00    +0.000 C 
ATOM      2  C   UNL     1      10.577  15.295  60.993  0.00  0.00    +0.000 C 
ENDROOT
BRANCH   1   6
ATOM      3  C   UNL     1      10.500  12.462  56.737  0.00  0.00    +0.000 A 
ATOM      4  C   UNL     1       9.499  13.292  57.228  0.00  0.00    +0.000 A 
ATOM      5  C   UNL     1       9.767  14.130  58.303  0.00  0.00    +0.000 A 
ATOM      6  C   UNL     1      10.931  14.001  59.052  0.00  0.00    +0.000 A 
ATOM      7  C   UNL     1      11.845  13.028  58.676  0.00  0.00    +0.000 A 
ATOM      8  C   UNL     1      11.525  12.173  57.628  0.00  0.00    +0.000 A 
BRANCH   3  10
ATOM      9  C   UNL     1      11.338  13.279  54.564  0.00  0.00    +0.000 C 
ATOM     10  O   UNL     1      10.668  12.325  55.355  0.00  0.00    +0.000 OA
ENDBRANCH   3  10
ENDBRANCH   1   6
BRANCH   2  11
ATOM     11  C   UNL     1      10.461  14.113  61.859  0.00  0.00    +0.000 A 
ATOM     12  C   UNL     1      11.521  13.913  62.735  0.00  0.00    +0.000 A 
ATOM     13  C   UNL     1      11.349  13.439  64.021  0.00  0.00    +0.000 A 
ATOM     14  C   UNL     1      10.136  12.920  64.383  0.00  0.00    +0.000 A 
ATOM     15  C   UNL     1       9.030  13.310  63.651  0.00  0.00    +0.000 A 
ATOM     16  C   UNL     1       9.220  13.705  62.332  0.00  0.00    +0.000 A 
BRANCH  13  17
ATOM     17  O   UNL     1      12.402  13.351  64.936  0.00  0.00    +0.000 OA
ATOM     18  C   UNL     1      13.419  12.386  64.748  0.00  0.00    +0.000 C 
ENDBRANCH  13  17
BRANCH  14  19
ATOM     19  O   UNL     1       9.947  12.419  65.652  0.00  0.00    +0.000 OA
ATOM     20  C   UNL     1       9.939  11.014  65.841  0.00  0.00    +0.000 C 
ENDBRANCH  14  19
BRANCH  15  21
ATOM     21  O   UNL     1       7.744  13.217  64.189  0.00  0.00    +0.000 OA
ATOM     22  C   UNL     1       6.862  12.187  63.824  0.00  0.00    +0.000 C 
ENDBRANCH  15  21
ENDBRANCH   2  11
BRANCH   1  23
ATOM     23  C   UNL     1      11.961  16.310  59.353  0.00  0.00    +0.000 C 
ATOM     24  N   UNL     1      12.498  17.183  58.795  0.00  0.00    +0.000 NA
ENDBRANCH   1  23
TORSDOF 7
ENDMDL
MODEL 7
REMARK VINA RESULT:      -0.0     30.313     33.612
REMARK  Name = 
REMARK  7 active torsions:
REMARK  status: ('A' for Active; 'I' for Inactive)
REMARK    1  A    between atoms: O_2  and  C_3
REMARK    2  A    between atoms: C_6  and  C_7
REMARK    3  A    between atoms: C_7  and  C_8
REMARK    4  A    between atoms: C_10  and  C_11
REMARK    5  A    between atoms: C_13  and  O_14
REMARK    6  A    between atoms: C_16  and  O_17
REMARK    7  A    between atoms: C_19  and  O_20
REMARK                            x       y       z     vdW  Elec       q    Type
REMARK                         _______ _______ _______ _____ _____    ______ ____
ROOT
ATOM      1  C   UNL     1       1.533  29.935  73.338  0.00  0.00    +0.000 C 
ATOM      2  C   UNL     1       1.797  29.021  74.264  0.00  0.00    +0.000 C 
ENDROOT
BRANCH   1   6
ATOM      3  C   UNL     1       4.309  31.843  70.819  0.00  0.00    +0.000 A 
ATOM      4  C   UNL     1       4.299  30.459  70.945  0.00  0.00    +0.000 A 
ATOM      5  C   UNL     1       3.410  29.855  71.825  0.00  0.00    +0.000 A 
ATOM      6  C   UNL     1       2.690  30.598  72.754  0.00  0.00    +0.000 A 
ATOM      7  C   UNL     1       2.856  31.975  72.759  0.00  0.00    +0.000 A 
ATOM      8  C   UNL     1       3.789  32.543  71.901  0.00  0.00    +0.000 A 
BRANCH   3  10
ATOM      9  C   UNL     1       3.311  32.548  68.675  0.00  0.00    +0.000 C 
ATOM     10  O   UNL     1       4.408  32.422  69.549  0.00  0.00    +0.000 OA
ENDBRANCH   3  10
ENDBRANCH   1   6
BRANCH   2  11
ATOM     11  C   UNL     1       2.697  29.430  75.351  0.00  0.00    +0.000 A 
ATOM     12  C   UNL     1       2.090  30.107  76.403  0.00  0.00    +0.000 A 
ATOM     13  C   UNL     1       2.461  29.928  77.721  0.00  0.00    +0.000 A 
ATOM     14  C   UNL     1       3.615  29.249  78.003  0.00  0.00    +0.000 A 
ATOM     15  C   UNL     1       4.098  28.384  77.039  0.00  0.00    +0.000 A 
ATOM     16  C   UNL     1       3.778  28.634  75.710  0.00  0.00    +0.000 A 
BRANCH  13  17
ATOM     17  O   UNL     1       1.770  30.520  78.782  0.00  0.00    +0.000 OA
ATOM     18  C   UNL     1       1.849  31.918  78.981  0.00  0.00    +0.000 C 
ENDBRANCH  13  17
BRANCH  14  19
ATOM     19  O   UNL     1       4.018  29.080  79.309  0.00  0.00    +0.000 OA
ATOM     20  C   UNL     1       5.069  29.886  79.813  0.00  0.00    +0.000 C 
ENDBRANCH  14  19
BRANCH  15  21
ATOM     21  O   UNL     1       4.965  27.343  77.380  0.00  0.00    +0.000 OA
ATOM     22  C   UNL     1       6.345  27.418  77.131  0.00  0.00    +0.000 C 
ENDBRANCH  15  21
ENDBRANCH   2  11
BRANCH   1  23
ATOM     23  C   UNL     1       0.254  29.862  72.668  0.00  0.00    +0.000 C 
ATOM     24  N   UNL     1      -0.712  29.873  72.014  0.00  0.00    +0.000 NA
ENDBRANCH   1  23
TORSDOF 7
ENDMDL
MODEL 8
REMARK VINA RESULT:      -0.0     36.163     42.077
REMARK  Name = 
REMARK  7 active torsions:
REMARK  status: ('A' for Active; 'I' for Inactive)
REMARK    1  A    between atoms: O_2  and  C_3
REMARK    2  A    between atoms: C_6  and  C_7
REMARK    3  A    between atoms: C_7  and  C_8
REMARK    4  A    between atoms: C_10  and  C_11
REMARK    5  A    between atoms: C_13  and  O_14
REMARK    6  A    between atoms: C_16  and  O_17
REMARK    7  A    between atoms: C_19  and  O_20
REMARK                            x       y       z     vdW  Elec       q    Type
REMARK                         _______ _______ _______ _____ _____    ______ ____
ROOT
ATOM      1  C   UNL     1      -6.844   2.107  78.505  0.00  0.00    +0.000 C 
ATOM      2  C   UNL     1      -7.720   1.683  79.408  0.00  0.00    +0.000 C 
ENDROOT
BRANCH   1   6
ATOM      3  C   UNL     1      -4.986   5.879  78.376  0.00  0.00    +0.000 A 
ATOM      4  C   UNL     1      -4.991   5.130  79.547  0.00  0.00    +0.000 A 
ATOM      5  C   UNL     1      -5.659   3.911  79.581  0.00  0.00    +0.000 A 
ATOM      6  C   UNL     1      -6.516   3.525  78.557  0.00  0.00    +0.000 A 
ATOM      7  C   UNL     1      -6.665   4.377  77.473  0.00  0.00    +0.000 A 
ATOM      8  C   UNL     1      -6.023   5.609  77.492  0.00  0.00    +0.000 A 
BRANCH   3  10
ATOM      9  C   UNL     1      -2.774   5.807  77.285  0.00  0.00    +0.000 C 
ATOM     10  O   UNL     1      -3.804   6.496  77.955  0.00  0.00    +0.000 OA
ENDBRANCH   3  10
ENDBRANCH   1   6
BRANCH   2  11
ATOM     11  C   UNL     1      -8.971   2.446  79.516  0.00  0.00    +0.000 A 
ATOM     12  C   UNL     1      -9.962   2.097  78.606  0.00  0.00    +0.000 A 
ATOM     13  C   UNL     1     -11.303   2.070  78.934  0.00  0.00    +0.000 A 
ATOM     14  C   UNL     1     -11.712   2.630  80.113  0.00  0.00    +0.000 A 
ATOM     15  C   UNL     1     -10.772   2.762  81.118  0.00  0.00    +0.000 A 
ATOM     16  C   UNL     1      -9.434   2.870  80.756  0.00  0.00    +0.000 A 
BRANCH  13  17
ATOM     17  O   UNL     1     -12.283   1.605  78.051  0.00  0.00    +0.000 OA
ATOM     18  C   UNL     1     -12.610   2.360  76.901  0.00  0.00    +0.000 C 
ENDBRANCH  13  17
BRANCH  14  19
ATOM     19  O   UNL     1     -13.048   2.637  80.450  0.00  0.00    +0.000 OA
ATOM     20  C   UNL     1     -13.784   3.841  80.309  0.00  0.00    +0.000 C 
ENDBRANCH  14  19
BRANCH  15  21
ATOM     21  O   UNL     1     -11.161   2.883  82.454  0.00  0.00    +0.000 OA
ATOM     22  C   UNL     1     -11.149   4.120  83.119  0.00  0.00    +0.000 C 
ENDBRANCH  15  21
ENDBRANCH   2  11
BRANCH   1  23
ATOM     23  C   UNL     1      -5.969   1.125  77.905  0.00  0.00    +0.000 C 
ATOM     24  N   UNL     1      -5.169   0.445  77.398  0.00  0.00    +0.000 NA
ENDBRANCH   1  23
TORSDOF 7
ENDMDL
MODEL 9
REMARK VINA RESULT:      -0.0     19.103     22.317
REMARK  Name = 
REMARK  7 active torsions:
REMARK  status: ('A' for Active; 'I' for Inactive)
REMARK    1  A    between atoms: O_2  and  C_3
REMARK    2  A    between atoms: C_6  and  C_7
REMARK    3  A    between atoms: C_7  and  C_8
REMARK    4  A    between atoms: C_10  and  C_11
REMARK    5  A    between atoms: C_13  and  O_14
REMARK    6  A    between atoms: C_16  and  O_17
REMARK    7  A    between atoms: C_19  and  O_20
REMARK                            x       y       z     vdW  Elec       q    Type
REMARK                         _______ _______ _______ _____ _____    ______ ____
ROOT
ATOM      1  C   UNL     1       4.767  21.688  66.020  0.00  0.00    +0.000 C 
ATOM      2  C   UNL     1       3.675  21.480  65.295  0.00  0.00    +0.000 C 
ENDROOT
BRANCH   1   6
ATOM      3  C   UNL     1       6.952  25.271  66.313  0.00  0.00    +0.000 A 
ATOM      4  C   UNL     1       5.574  25.264  66.490  0.00  0.00    +0.000 A 
ATOM      5  C   UNL     1       4.867  24.077  66.334  0.00  0.00    +0.000 A 
ATOM      6  C   UNL     1       5.457  22.948  65.780  0.00  0.00    +0.000 A 
ATOM      7  C   UNL     1       6.793  23.021  65.415  0.00  0.00    +0.000 A 
ATOM      8  C   UNL     1       7.458  24.235  65.537  0.00  0.00    +0.000 A 
BRANCH   3  10
ATOM      9  C   UNL     1       8.117  25.494  68.477  0.00  0.00    +0.000 C 
ATOM     10  O   UNL     1       7.761  25.983  67.205  0.00  0.00    +0.000 OA
ENDBRANCH   3  10
ENDBRANCH   1   6
BRANCH   2  11
ATOM     11  C   UNL     1       3.805  21.670  63.844  0.00  0.00    +0.000 A 
ATOM     12  C   UNL     1       4.300  20.576  63.143  0.00  0.00    +0.000 A 
ATOM     13  C   UNL     1       3.843  20.223  61.889  0.00  0.00    +0.000 A 
ATOM     14  C   UNL     1       3.050  21.097  61.197  0.00  0.00    +0.000 A 
ATOM     15  C   UNL     1       2.361  22.048  61.926  0.00  0.00    +0.000 A 
ATOM     16  C   UNL     1       2.887  22.448  63.149  0.00  0.00    +0.000 A 
BRANCH  13  17
ATOM     17  O   UNL     1       4.258  19.056  61.240  0.00  0.00    +0.000 OA
ATOM     18  C   UNL     1       5.582  18.955  60.752  0.00  0.00    +0.000 C 
ENDBRANCH  13  17
BRANCH  14  19
ATOM     19  O   UNL     1       2.603  20.776  59.935  0.00  0.00    +0.000 OA
ATOM     20  C   UNL     1       3.227  21.377  58.812  0.00  0.00    +0.000 C 
ENDBRANCH  14  19
BRANCH  15  21
ATOM     21  O   UNL     1       1.221  22.665  61.404  0.00  0.00    +0.000 OA
ATOM     22  C   UNL     1       1.255  23.970  60.889  0.00  0.00    +0.000 C 
ENDBRANCH  15  21
ENDBRANCH   2  11
BRANCH   1  23
ATOM     23  C   UNL     1       4.908  20.943  67.252  0.00  0.00    +0.000 C 
ATOM     24  N   UNL     1       5.107  20.454  68.291  0.00  0.00    +0.000 NA
ENDBRANCH   1  23
TORSDOF 7
ENDMDL
MODEL 10
REMARK VINA RESULT:      -0.0     14.714     18.008
REMARK  Name = 
REMARK  7 active torsions:
REMARK  status: ('A' for Active; 'I' for Inactive)
REMARK    1  A    between atoms: O_2  and  C_3
REMARK    2  A    between atoms: C_6  and  C_7
REMARK    3  A    between atoms: C_7  and  C_8
REMARK    4  A    between atoms: C_10  and  C_11
REMARK    5  A    between atoms: C_13  and  O_14
REMARK    6  A    between atoms: C_16  and  O_17
REMARK    7  A    between atoms: C_19  and  O_20
REMARK                            x       y       z     vdW  Elec       q    Type
REMARK                         _______ _______ _______ _____ _____    ______ ____
ROOT
ATOM      1  C   UNL     1       7.194   0.589  53.508  0.00  0.00    +0.000 C 
ATOM      2  C   UNL     1       8.404   0.044  53.484  0.00  0.00    +0.000 C 
ENDROOT
BRANCH   1   6
ATOM      3  C   UNL     1       5.556   3.216  50.660  0.00  0.00    +0.000 A 
ATOM      4  C   UNL     1       6.150   2.022  50.266  0.00  0.00    +0.000 A 
ATOM      5  C   UNL     1       6.733   1.197  51.221  0.00  0.00    +0.000 A 
ATOM      6  C   UNL     1       6.948   1.633  52.522  0.00  0.00    +0.000 A 
ATOM      7  C   UNL     1       6.532   2.911  52.862  0.00  0.00    +0.000 A 
ATOM      8  C   UNL     1       5.998   3.729  51.874  0.00  0.00    +0.000 A 
BRANCH   3  10
ATOM      9  C   UNL     1       3.096   3.062  50.537  0.00  0.00    +0.000 C 
ATOM     10  O   UNL     1       4.328   3.593  50.107  0.00  0.00    +0.000 OA
ENDBRANCH   3  10
ENDBRANCH   1   6
BRANCH   2  11
ATOM     11  C   UNL     1       9.542   0.974  53.496  0.00  0.00    +0.000 A 
ATOM     12  C   UNL     1       9.931   1.420  54.754  0.00  0.00    +0.000 A 
ATOM     13  C   UNL     1      11.253   1.619  55.101  0.00  0.00    +0.000 A 
ATOM     14  C   UNL     1      12.208   1.610  54.122  0.00  0.00    +0.000 A 
ATOM     15  C   UNL     1      11.909   0.952  52.944  0.00  0.00    +0.000 A 
ATOM     16  C   UNL     1      10.574   0.838  52.575  0.00  0.00    +0.000 A 
BRANCH  13  17
ATOM     17  O   UNL     1      11.645   1.954  56.401  0.00  0.00    +0.000 OA
ATOM     18  C   UNL     1      11.346   3.236  56.918  0.00  0.00    +0.000 C 
ENDBRANCH  13  17
BRANCH  14  19
ATOM     19  O   UNL     1      13.530   1.831  54.442  0.00  0.00    +0.000 OA
ATOM     20  C   UNL     1      14.101   3.098  54.163  0.00  0.00    +0.000 C 
ENDBRANCH  14  19
BRANCH  15  21
ATOM     21  O   UNL     1      12.924   0.501  52.097  0.00  0.00    +0.000 OA
ATOM     22  C   UNL     1      13.260   1.182  50.915  0.00  0.00    +0.000 C 
ENDBRANCH  15  21
ENDBRANCH   2  11
BRANCH   1  23
ATOM     23  C   UNL     1       6.128  -0.169  54.125  0.00  0.00    +0.000 C 
ATOM     24  N   UNL     1       5.176  -0.704  54.535  0.00  0.00    +0.000 NA
ENDBRANCH   1  23
TORSDOF 7
ENDMDL
