REMARK  Name = 
REMARK  5 active torsions:
REMARK  status: ('A' for Active; 'I' for Inactive)
REMARK    1  A    between atoms: O_2  and  C_3
REMARK    2  A    between atoms: C_5  and  C_6
REMARK    3  A    between atoms: C_7  and  C_8
REMARK    4  A    between atoms: C_16  and  O_17
REMARK    5  A    between atoms: C_19  and  O_20
REMARK                            x       y       z     vdW  Elec       q    Type
REMARK                         _______ _______ _______ _____ _____    ______ ____
ROOT
ATOM      1  C   UNL     1      -2.903  -0.325   0.750  0.00  0.00    +0.000 A 
ATOM      2  C   UNL     1      -1.686  -0.384   1.417  0.00  0.00    +0.000 A 
ATOM      3  C   UNL     1      -0.525   0.148   0.865  0.00  0.00    +0.000 A 
ATOM      4  C   UNL     1      -0.734   0.918  -0.275  0.00  0.00    +0.000 A 
ATOM      5  C   UNL     1      -1.712   0.506  -1.157  0.00  0.00    +0.000 A 
ATOM      6  C   UNL     1      -2.865  -0.013  -0.601  0.00  0.00    +0.000 A 
ENDROOT
BRANCH   1   8
ATOM      7  C   UNL     1      -4.204  -0.171   2.769  0.00  0.00    +0.000 C 
ATOM      8  O   UNL     1      -4.120  -0.544   1.401  0.00  0.00    +0.000 OA
ENDBRANCH   1   8
BRANCH   3   9
ATOM      9  C   UNL     1       0.442   0.711   1.818  0.00  0.00    +0.000 C 
ATOM     10  C   UNL     1       1.474  -0.092   2.083  0.00  0.00    +0.000 C 
BRANCH  10  11
ATOM     11  C   UNL     1       2.255  -0.485   0.902  0.00  0.00    +0.000 A 
ATOM     12  C   UNL     1       2.530   0.474  -0.059  0.00  0.00    +0.000 A 
ATOM     13  C   UNL     1       3.708   0.549  -0.750  0.00  0.00    +0.000 A 
ATOM     14  C   UNL     1       4.768  -0.242  -0.360  0.00  0.00    +0.000 A 
ATOM     15  O   UNL     1       6.051   0.186  -0.709  0.00  0.00    +0.000 OA
ATOM     16  C   UNL     1       4.526  -1.263   0.520  0.00  0.00    +0.000 A 
ATOM     17  C   UNL     1       3.281  -1.398   1.124  0.00  0.00    +0.000 A 
ENDBRANCH  10  11
ENDBRANCH   3   9
BRANCH   5  18
ATOM     18  O   UNL     1      -1.650   0.995  -2.457  0.00  0.00    +0.000 OA
ATOM     19  C   UNL     1      -0.649   0.549  -3.367  0.00  0.00    +0.000 C 
ENDBRANCH   5  18
BRANCH   6  20
ATOM     20  O   UNL     1      -4.014  -0.104  -1.367  0.00  0.00    +0.000 OA
ATOM     21  C   UNL     1      -3.973  -0.886  -2.547  0.00  0.00    +0.000 C 
ENDBRANCH   6  20
TORSDOF 5
