MODEL 1
REMARK VINA RESULT:       0.0      0.000      0.000
REMARK  Name = 
REMARK  5 active torsions:
REMARK  status: ('A' for Active; 'I' for Inactive)
REMARK    1  A    between atoms: O_2  and  C_3
REMARK    2  A    between atoms: C_5  and  C_6
REMARK    3  A    between atoms: C_7  and  C_8
REMARK    4  A    between atoms: C_16  and  O_17
REMARK    5  A    between atoms: C_19  and  O_20
REMARK                            x       y       z     vdW  Elec       q    Type
REMARK                         _______ _______ _______ _____ _____    ______ ____
ROOT
ATOM      1  C   UNL     1      12.237  10.157  71.017  0.00  0.00    +0.000 A 
ATOM      2  C   UNL     1      13.185  11.162  70.874  0.00  0.00    +0.000 A 
ATOM      3  C   UNL     1      12.818  12.490  70.684  0.00  0.00    +0.000 A 
ATOM      4  C   UNL     1      11.462  12.741  70.872  0.00  0.00    +0.000 A 
ATOM      5  C   UNL     1      10.567  11.780  70.448  0.00  0.00    +0.000 A 
ATOM      6  C   UNL     1      10.936  10.464  70.648  0.00  0.00    +0.000 A 
ENDROOT
BRANCH   1   8
ATOM      7  C   UNL     1      13.271   8.010  70.679  0.00  0.00    +0.000 C 
ATOM      8  O   UNL     1      12.559   8.897  71.529  0.00  0.00    +0.000 OA
ENDBRANCH   1   8
BRANCH   3   9
ATOM      9  C   UNL     1      13.716  13.496  71.268  0.00  0.00    +0.000 C 
ATOM     10  C   UNL     1      14.782  13.775  70.516  0.00  0.00    +0.000 C 
BRANCH  10  11
ATOM     11  C   UNL     1      14.461  14.257  69.166  0.00  0.00    +0.000 A 
ATOM     12  C   UNL     1      14.020  15.562  69.016  0.00  0.00    +0.000 A 
ATOM     13  C   UNL     1      14.353  16.366  67.960  0.00  0.00    +0.000 A 
ATOM     14  C   UNL     1      15.327  15.948  67.078  0.00  0.00    +0.000 A 
ATOM     15  O   UNL     1      15.997  16.933  66.348  0.00  0.00    +0.000 OA
ATOM     16  C   UNL     1      15.729  14.640  67.128  0.00  0.00    +0.000 A 
ATOM     17  C   UNL     1      15.285  13.800  68.142  0.00  0.00    +0.000 A 
ENDBRANCH  10  11
ENDBRANCH   3   9
BRANCH   5  18
ATOM     18  O   UNL     1       9.251  12.176  70.242  0.00  0.00    +0.000 OA
ATOM     19  C   UNL     1       8.758  12.450  68.933  0.00  0.00    +0.000 C 
ENDBRANCH   5  18
BRANCH   6  20
ATOM     20  O   UNL     1       9.975   9.469  70.599  0.00  0.00    +0.000 OA
ATOM     21  C   UNL     1       9.770   8.794  69.371  0.00  0.00    +0.000 C 
ENDBRANCH   6  20
TORSDOF 5
ENDMDL
MODEL 2
REMARK VINA RESULT:       0.0      8.316     11.661
REMARK  Name = 
REMARK  5 active torsions:
REMARK  status: ('A' for Active; 'I' for Inactive)
REMARK    1  A    between atoms: O_2  and  C_3
REMARK    2  A    between atoms: C_5  and  C_6
REMARK    3  A    between atoms: C_7  and  C_8
REMARK    4  A    between atoms: C_16  and  O_17
REMARK    5  A    between atoms: C_19  and  O_20
REMARK                            x       y       z     vdW  Elec       q    Type
REMARK                         _______ _______ _______ _____ _____    ______ ____
ROOT
ATOM      1  C   UNL     1      13.752  21.855  66.314  0.00  0.00    +0.000 A 
ATOM      2  C   UNL     1      14.611  22.553  65.475  0.00  0.00    +0.000 A 
ATOM      3  C   UNL     1      14.263  22.856  64.162  0.00  0.00    +0.000 A 
ATOM      4  C   UNL     1      12.931  22.601  63.850  0.00  0.00    +0.000 A 
ATOM      5  C   UNL     1      12.343  21.485  64.410  0.00  0.00    +0.000 A 
ATOM      6  C   UNL     1      12.687  21.196  65.717  0.00  0.00    +0.000 A 
ENDROOT
BRANCH   1   8
ATOM      7  C   UNL     1      14.963  21.001  68.211  0.00  0.00    +0.000 C 
ATOM      8  O   UNL     1      13.925  21.826  67.700  0.00  0.00    +0.000 OA
ENDBRANCH   1   8
BRANCH   3   9
ATOM      9  C   UNL     1      14.786  24.123  63.633  0.00  0.00    +0.000 C 
ATOM     10  C   UNL     1      16.046  24.052  63.200  0.00  0.00    +0.000 C 
BRANCH  10  11
ATOM     11  C   UNL     1      16.269  23.052  62.146  0.00  0.00    +0.000 A 
ATOM     12  C   UNL     1      15.855  23.345  60.857  0.00  0.00    +0.000 A 
ATOM     13  C   UNL     1      16.538  22.978  59.731  0.00  0.00    +0.000 A 
ATOM     14  C   UNL     1      17.806  22.450  59.857  0.00  0.00    +0.000 A 
ATOM     15  O   UNL     1      18.658  22.556  58.754  0.00  0.00    +0.000 OA
ATOM     16  C   UNL     1      18.226  22.060  61.100  0.00  0.00    +0.000 A 
ATOM     17  C   UNL     1      17.458  22.335  62.226  0.00  0.00    +0.000 A 
ENDBRANCH  10  11
ENDBRANCH   3   9
BRANCH   5  18
ATOM     18  O   UNL     1      11.194  20.992  63.802  0.00  0.00    +0.000 OA
ATOM     19  C   UNL     1      11.252  19.897  62.893  0.00  0.00    +0.000 C 
ENDBRANCH   5  18
BRANCH   6  20
ATOM     20  O   UNL     1      11.893  20.343  66.462  0.00  0.00    +0.000 OA
ATOM     21  C   UNL     1      12.223  18.966  66.481  0.00  0.00    +0.000 C 
ENDBRANCH   6  20
TORSDOF 5
ENDMDL
MODEL 3
REMARK VINA RESULT:       0.0     29.723     31.556
REMARK  Name = 
REMARK  5 active torsions:
REMARK  status: ('A' for Active; 'I' for Inactive)
REMARK    1  A    between atoms: O_2  and  C_3
REMARK    2  A    between atoms: C_5  and  C_6
REMARK    3  A    between atoms: C_7  and  C_8
REMARK    4  A    between atoms: C_16  and  O_17
REMARK    5  A    between atoms: C_19  and  O_20
REMARK                            x       y       z     vdW  Elec       q    Type
REMARK                         _______ _______ _______ _____ _____    ______ ____
ROOT
ATOM      1  C   UNL     1     -13.035   9.585  51.793  0.00  0.00    +0.000 A 
ATOM      2  C   UNL     1     -12.494  10.693  52.432  0.00  0.00    +0.000 A 
ATOM      3  C   UNL     1     -13.301  11.653  53.036  0.00  0.00    +0.000 A 
ATOM      4  C   UNL     1     -14.642  11.294  53.134  0.00  0.00    +0.000 A 
ATOM      5  C   UNL     1     -15.194  10.584  52.087  0.00  0.00    +0.000 A 
ATOM      6  C   UNL     1     -14.390   9.627  51.499  0.00  0.00    +0.000 A 
ENDROOT
BRANCH   1   8
ATOM      7  C   UNL     1     -11.372   8.571  50.380  0.00  0.00    +0.000 C 
ATOM      8  O   UNL     1     -12.268   8.460  51.476  0.00  0.00    +0.000 OA
ENDBRANCH   1   8
BRANCH   3   9
ATOM      9  C   UNL     1     -12.748  12.296  54.236  0.00  0.00    +0.000 C 
ATOM     10  C   UNL     1     -11.903  13.296  53.976  0.00  0.00    +0.000 C 
BRANCH  10  11
ATOM     11  C   UNL     1     -12.477  14.379  53.166  0.00  0.00    +0.000 A 
ATOM     12  C   UNL     1     -13.295  15.308  53.788  0.00  0.00    +0.000 A 
ATOM     13  C   UNL     1     -13.315  16.640  53.477  0.00  0.00    +0.000 A 
ATOM     14  C   UNL     1     -12.349  17.148  52.634  0.00  0.00    +0.000 A 
ATOM     15  O   UNL     1     -12.071  18.514  52.726  0.00  0.00    +0.000 OA
ATOM     16  C   UNL     1     -11.576  16.266  51.927  0.00  0.00    +0.000 A 
ATOM     17  C   UNL     1     -11.655  14.900  52.172  0.00  0.00    +0.000 A 
ENDBRANCH  10  11
ENDBRANCH   3   9
BRANCH   5  18
ATOM     18  O   UNL     1     -16.579  10.586  51.972  0.00  0.00    +0.000 OA
ATOM     19  C   UNL     1     -17.241  11.437  51.041  0.00  0.00    +0.000 C 
ENDBRANCH   5  18
BRANCH   6  20
ATOM     20  O   UNL     1     -14.961   8.640  50.715  0.00  0.00    +0.000 OA
ATOM     21  C   UNL     1     -15.028   8.851  49.316  0.00  0.00    +0.000 C 
ENDBRANCH   6  20
TORSDOF 5
ENDMDL
MODEL 4
REMARK VINA RESULT:       0.0     19.983     22.612
REMARK  Name = 
REMARK  5 active torsions:
REMARK  status: ('A' for Active; 'I' for Inactive)
REMARK    1  A    between atoms: O_2  and  C_3
REMARK    2  A    between atoms: C_5  and  C_6
REMARK    3  A    between atoms: C_7  and  C_8
REMARK    4  A    between atoms: C_16  and  O_17
REMARK    5  A    between atoms: C_19  and  O_20
REMARK                            x       y       z     vdW  Elec       q    Type
REMARK                         _______ _______ _______ _____ _____    ______ ____
ROOT
ATOM      1  C   UNL     1       9.861  -0.978  54.620  0.00  0.00    +0.000 A 
ATOM      2  C   UNL     1       9.711  -1.195  53.256  0.00  0.00    +0.000 A 
ATOM      3  C   UNL     1       9.144  -0.236  52.423  0.00  0.00    +0.000 A 
ATOM      4  C   UNL     1       8.956   1.005  53.023  0.00  0.00    +0.000 A 
ATOM      5  C   UNL     1       8.573   1.025  54.348  0.00  0.00    +0.000 A 
ATOM      6  C   UNL     1       9.146   0.075  55.171  0.00  0.00    +0.000 A 
ENDROOT
BRANCH   1   8
ATOM      7  C   UNL     1      10.267  -3.072  55.735  0.00  0.00    +0.000 C 
ATOM      8  O   UNL     1      10.707  -1.761  55.409  0.00  0.00    +0.000 OA
ENDBRANCH   1   8
BRANCH   3   9
ATOM      9  C   UNL     1       9.670  -0.182  51.051  0.00  0.00    +0.000 C 
ATOM     10  C   UNL     1       9.137  -1.087  50.229  0.00  0.00    +0.000 C 
BRANCH  10  11
ATOM     11  C   UNL     1       7.675  -1.003  50.102  0.00  0.00    +0.000 A 
ATOM     12  C   UNL     1       7.136  -0.025  49.283  0.00  0.00    +0.000 A 
ATOM     13  C   UNL     1       6.025  -0.204  48.505  0.00  0.00    +0.000 A 
ATOM     14  C   UNL     1       5.502  -1.472  48.363  0.00  0.00    +0.000 A 
ATOM     15  O   UNL     1       4.733  -1.725  47.225  0.00  0.00    +0.000 OA
ATOM     16  C   UNL     1       5.938  -2.453  49.213  0.00  0.00    +0.000 A 
ATOM     17  C   UNL     1       6.993  -2.216  50.087  0.00  0.00    +0.000 A 
ENDBRANCH  10  11
ENDBRANCH   3   9
BRANCH   5  18
ATOM     18  O   UNL     1       7.988   2.191  54.829  0.00  0.00    +0.000 OA
ATOM     19  C   UNL     1       6.575   2.305  54.970  0.00  0.00    +0.000 C 
ENDBRANCH   5  18
BRANCH   6  20
ATOM     20  O   UNL     1       9.110   0.246  56.544  0.00  0.00    +0.000 OA
ATOM     21  C   UNL     1       8.055  -0.362  57.268  0.00  0.00    +0.000 C 
ENDBRANCH   6  20
TORSDOF 5
ENDMDL
MODEL 5
REMARK VINA RESULT:       0.0     20.502     22.075
REMARK  Name = 
REMARK  5 active torsions:
REMARK  status: ('A' for Active; 'I' for Inactive)
REMARK    1  A    between atoms: O_2  and  C_3
REMARK    2  A    between atoms: C_5  and  C_6
REMARK    3  A    between atoms: C_7  and  C_8
REMARK    4  A    between atoms: C_16  and  O_17
REMARK    5  A    between atoms: C_19  and  O_20
REMARK                            x       y       z     vdW  Elec       q    Type
REMARK                         _______ _______ _______ _____ _____    ______ ____
ROOT
ATOM      1  C   UNL     1      19.485  16.955  50.506  0.00  0.00    +0.000 A 
ATOM      2  C   UNL     1      20.751  16.411  50.680  0.00  0.00    +0.000 A 
ATOM      3  C   UNL     1      21.714  17.040  51.462  0.00  0.00    +0.000 A 
ATOM      4  C   UNL     1      21.234  18.110  52.211  0.00  0.00    +0.000 A 
ATOM      5  C   UNL     1      20.274  18.917  51.635  0.00  0.00    +0.000 A 
ATOM      6  C   UNL     1      19.317  18.284  50.866  0.00  0.00    +0.000 A 
ENDROOT
BRANCH   1   8
ATOM      7  C   UNL     1      18.405  15.914  48.623  0.00  0.00    +0.000 C 
ATOM      8  O   UNL     1      18.414  16.205  50.014  0.00  0.00    +0.000 OA
ENDBRANCH   1   8
BRANCH   3   9
ATOM      9  C   UNL     1      22.639  16.153  52.182  0.00  0.00    +0.000 C 
ATOM     10  C   UNL     1      23.656  15.712  51.439  0.00  0.00    +0.000 C 
BRANCH  10  11
ATOM     11  C   UNL     1      24.488  16.774  50.857  0.00  0.00    +0.000 A 
ATOM     12  C   UNL     1      25.424  17.400  51.665  0.00  0.00    +0.000 A 
ATOM     13  C   UNL     1      26.657  17.805  51.235  0.00  0.00    +0.000 A 
ATOM     14  C   UNL     1      27.094  17.417  49.986  0.00  0.00    +0.000 A 
ATOM     15  O   UNL     1      28.474  17.391  49.768  0.00  0.00    +0.000 OA
ATOM     16  C   UNL     1      26.183  16.877  49.118  0.00  0.00    +0.000 A 
ATOM     17  C   UNL     1      24.891  16.582  49.540  0.00  0.00    +0.000 A 
ENDBRANCH  10  11
ENDBRANCH   3   9
BRANCH   5  18
ATOM     18  O   UNL     1      20.098  20.187  52.171  0.00  0.00    +0.000 OA
ATOM     19  C   UNL     1      20.672  21.336  51.554  0.00  0.00    +0.000 C 
ENDBRANCH   5  18
BRANCH   6  20
ATOM     20  O   UNL     1      18.137  18.941  50.563  0.00  0.00    +0.000 OA
ATOM     21  C   UNL     1      18.059  19.649  49.339  0.00  0.00    +0.000 C 
ENDBRANCH   6  20
TORSDOF 5
ENDMDL
MODEL 6
REMARK VINA RESULT:       0.0     20.148     23.542
REMARK  Name = 
REMARK  5 active torsions:
REMARK  status: ('A' for Active; 'I' for Inactive)
REMARK    1  A    between atoms: O_2  and  C_3
REMARK    2  A    between atoms: C_5  and  C_6
REMARK    3  A    between atoms: C_7  and  C_8
REMARK    4  A    between atoms: C_16  and  O_17
REMARK    5  A    between atoms: C_19  and  O_20
REMARK                            x       y       z     vdW  Elec       q    Type
REMARK                         _______ _______ _______ _____ _____    ______ ____
ROOT
ATOM      1  C   UNL     1      -0.560   8.645  50.555  0.00  0.00    +0.000 A 
ATOM      2  C   UNL     1      -1.371   7.636  51.059  0.00  0.00    +0.000 A 
ATOM      3  C   UNL     1      -1.579   7.482  52.426  0.00  0.00    +0.000 A 
ATOM      4  C   UNL     1      -1.097   8.533  53.200  0.00  0.00    +0.000 A 
ATOM      5  C   UNL     1       0.087   9.126  52.812  0.00  0.00    +0.000 A 
ATOM      6  C   UNL     1       0.281   9.283  51.454  0.00  0.00    +0.000 A 
ENDROOT
BRANCH   1   8
ATOM      7  C   UNL     1       0.018   8.156  48.270  0.00  0.00    +0.000 C 
ATOM      8  O   UNL     1      -0.595   9.026  49.211  0.00  0.00    +0.000 OA
ENDBRANCH   1   8
BRANCH   3   9
ATOM      9  C   UNL     1      -2.902   6.981  52.824  0.00  0.00    +0.000 C 
ATOM     10  C   UNL     1      -3.028   5.655  52.744  0.00  0.00    +0.000 C 
BRANCH  10  11
ATOM     11  C   UNL     1      -2.054   4.904  53.548  0.00  0.00    +0.000 A 
ATOM     12  C   UNL     1      -2.273   4.785  54.911  0.00  0.00    +0.000 A 
ATOM     13  C   UNL     1      -1.987   3.661  55.636  0.00  0.00    +0.000 A 
ATOM     14  C   UNL     1      -1.636   2.504  54.974  0.00  0.00    +0.000 A 
ATOM     15  O   UNL     1      -1.841   1.295  55.641  0.00  0.00    +0.000 OA
ATOM     16  C   UNL     1      -1.321   2.589  53.644  0.00  0.00    +0.000 A 
ATOM     17  C   UNL     1      -1.504   3.777  52.946  0.00  0.00    +0.000 A 
ENDBRANCH  10  11
ENDBRANCH   3   9
BRANCH   5  18
ATOM     18  O   UNL     1       0.779   9.861  53.768  0.00  0.00    +0.000 OA
ATOM     19  C   UNL     1       1.899   9.309  54.455  0.00  0.00    +0.000 C 
ENDBRANCH   5  18
BRANCH   6  20
ATOM     20  O   UNL     1       1.237  10.174  50.998  0.00  0.00    +0.000 OA
ATOM     21  C   UNL     1       2.532   9.679  50.708  0.00  0.00    +0.000 C 
ENDBRANCH   6  20
TORSDOF 5
ENDMDL
MODEL 7
REMARK VINA RESULT:       0.0     21.428     23.859
REMARK  Name = 
REMARK  5 active torsions:
REMARK  status: ('A' for Active; 'I' for Inactive)
REMARK    1  A    between atoms: O_2  and  C_3
REMARK    2  A    between atoms: C_5  and  C_6
REMARK    3  A    between atoms: C_7  and  C_8
REMARK    4  A    between atoms: C_16  and  O_17
REMARK    5  A    between atoms: C_19  and  O_20
REMARK                            x       y       z     vdW  Elec       q    Type
REMARK                         _______ _______ _______ _____ _____    ______ ____
ROOT
ATOM      1  C   UNL     1      15.103  32.713  57.366  0.00  0.00    +0.000 A 
ATOM      2  C   UNL     1      15.579  31.409  57.318  0.00  0.00    +0.000 A 
ATOM      3  C   UNL     1      16.910  31.109  57.593  0.00  0.00    +0.000 A 
ATOM      4  C   UNL     1      17.639  32.169  58.121  0.00  0.00    +0.000 A 
ATOM      5  C   UNL     1      17.372  33.435  57.640  0.00  0.00    +0.000 A 
ATOM      6  C   UNL     1      16.048  33.728  57.378  0.00  0.00    +0.000 A 
ENDROOT
BRANCH   1   8
ATOM      7  C   UNL     1      12.982  32.823  56.233  0.00  0.00    +0.000 C 
ATOM      8  O   UNL     1      13.737  33.005  57.422  0.00  0.00    +0.000 OA
ENDBRANCH   1   8
BRANCH   3   9
ATOM      9  C   UNL     1      17.157  29.811  58.237  0.00  0.00    +0.000 C 
ATOM     10  C   UNL     1      17.179  28.780  57.391  0.00  0.00    +0.000 C 
BRANCH  10  11
ATOM     11  C   UNL     1      18.179  28.895  56.321  0.00  0.00    +0.000 A 
ATOM     12  C   UNL     1      19.509  28.664  56.630  0.00  0.00    +0.000 A 
ATOM     13  C   UNL     1      20.392  28.038  55.793  0.00  0.00    +0.000 A 
ATOM     14  C   UNL     1      19.918  27.426  54.652  0.00  0.00    +0.000 A 
ATOM     15  O   UNL     1      20.694  26.403  54.103  0.00  0.00    +0.000 OA
ATOM     16  C   UNL     1      18.636  27.697  54.255  0.00  0.00    +0.000 A 
ATOM     17  C   UNL     1      17.785  28.441  55.066  0.00  0.00    +0.000 A 
ENDBRANCH  10  11
ENDBRANCH   3   9
BRANCH   5  18
ATOM     18  O   UNL     1      18.342  34.412  57.832  0.00  0.00    +0.000 OA
ATOM     19  C   UNL     1      19.246  34.770  56.792  0.00  0.00    +0.000 C 
ENDBRANCH   5  18
BRANCH   6  20
ATOM     20  O   UNL     1      15.651  35.048  57.251  0.00  0.00    +0.000 OA
ATOM     21  C   UNL     1      15.600  35.611  55.953  0.00  0.00    +0.000 C 
ENDBRANCH   6  20
TORSDOF 5
ENDMDL
MODEL 8
REMARK VINA RESULT:       0.0      7.927     10.169
REMARK  Name = 
REMARK  5 active torsions:
REMARK  status: ('A' for Active; 'I' for Inactive)
REMARK    1  A    between atoms: O_2  and  C_3
REMARK    2  A    between atoms: C_5  and  C_6
REMARK    3  A    between atoms: C_7  and  C_8
REMARK    4  A    between atoms: C_16  and  O_17
REMARK    5  A    between atoms: C_19  and  O_20
REMARK                            x       y       z     vdW  Elec       q    Type
REMARK                         _______ _______ _______ _____ _____    ______ ____
ROOT
ATOM      1  C   UNL     1      19.293  11.919  69.783  0.00  0.00    +0.000 A 
ATOM      2  C   UNL     1      19.783  11.444  68.573  0.00  0.00    +0.000 A 
ATOM      3  C   UNL     1      20.477  10.241  68.489  0.00  0.00    +0.000 A 
ATOM      4  C   UNL     1      20.438   9.475  69.650  0.00  0.00    +0.000 A 
ATOM      5  C   UNL     1      20.485  10.139  70.858  0.00  0.00    +0.000 A 
ATOM      6  C   UNL     1      19.787  11.328  70.937  0.00  0.00    +0.000 A 
ENDROOT
BRANCH   1   8
ATOM      7  C   UNL     1      18.754  14.256  69.580  0.00  0.00    +0.000 C 
ATOM      8  O   UNL     1      18.328  12.928  69.851  0.00  0.00    +0.000 OA
ENDBRANCH   1   8
BRANCH   3   9
ATOM      9  C   UNL     1      20.299   9.480  67.244  0.00  0.00    +0.000 C 
ATOM     10  C   UNL     1      21.070   9.896  66.238  0.00  0.00    +0.000 C 
BRANCH  10  11
ATOM     11  C   UNL     1      22.511   9.864  66.526  0.00  0.00    +0.000 A 
ATOM     12  C   UNL     1      23.173   8.649  66.457  0.00  0.00    +0.000 A 
ATOM     13  C   UNL     1      24.448   8.499  65.986  0.00  0.00    +0.000 A 
ATOM     14  C   UNL     1      25.066   9.564  65.366  0.00  0.00    +0.000 A 
ATOM     15  O   UNL     1      26.103   9.275  64.475  0.00  0.00    +0.000 OA
ATOM     16  C   UNL     1      24.496  10.803  65.484  0.00  0.00    +0.000 A 
ATOM     17  C   UNL     1      23.248  10.955  66.077  0.00  0.00    +0.000 A 
ENDBRANCH  10  11
ENDBRANCH   3   9
BRANCH   5  18
ATOM     18  O   UNL     1      20.864   9.407  71.978  0.00  0.00    +0.000 OA
ATOM     19  C   UNL     1      22.191   9.476  72.492  0.00  0.00    +0.000 C 
ENDBRANCH   5  18
BRANCH   6  20
ATOM     20  O   UNL     1      19.477  11.860  72.176  0.00  0.00    +0.000 OA
ATOM     21  C   UNL     1      20.358  12.819  72.733  0.00  0.00    +0.000 C 
ENDBRANCH   6  20
TORSDOF 5
ENDMDL
MODEL 9
REMARK VINA RESULT:       0.0     27.607     30.533
REMARK  Name = 
REMARK  5 active torsions:
REMARK  status: ('A' for Active; 'I' for Inactive)
REMARK    1  A    between atoms: O_2  and  C_3
REMARK    2  A    between atoms: C_5  and  C_6
REMARK    3  A    between atoms: C_7  and  C_8
REMARK    4  A    between atoms: C_16  and  O_17
REMARK    5  A    between atoms: C_19  and  O_20
REMARK                            x       y       z     vdW  Elec       q    Type
REMARK                         _______ _______ _______ _____ _____    ______ ____
ROOT
ATOM      1  C   UNL     1     -12.735  30.358  75.653  0.00  0.00    +0.000 A 
ATOM      2  C   UNL     1     -11.421  29.948  75.844  0.00  0.00    +0.000 A 
ATOM      3  C   UNL     1     -11.110  28.827  76.607  0.00  0.00    +0.000 A 
ATOM      4  C   UNL     1     -12.211  28.052  76.960  0.00  0.00    +0.000 A 
ATOM      5  C   UNL     1     -13.386  28.708  77.265  0.00  0.00    +0.000 A 
ATOM      6  C   UNL     1     -13.692  29.815  76.497  0.00  0.00    +0.000 A 
ENDROOT
BRANCH   1   8
ATOM      7  C   UNL     1     -12.769  32.625  74.847  0.00  0.00    +0.000 C 
ATOM      8  O   UNL     1     -13.095  31.257  74.646  0.00  0.00    +0.000 OA
ENDBRANCH   1   8
BRANCH   3   9
ATOM      9  C   UNL     1      -9.932  28.061  76.176  0.00  0.00    +0.000 C 
ATOM     10  C   UNL     1      -8.772  28.565  76.601  0.00  0.00    +0.000 C 
BRANCH  10  11
ATOM     11  C   UNL     1      -8.662  28.685  78.061  0.00  0.00    +0.000 A 
ATOM     12  C   UNL     1      -8.374  27.548  78.799  0.00  0.00    +0.000 A 
ATOM     13  C   UNL     1      -7.573  27.539  79.908  0.00  0.00    +0.000 A 
ATOM     14  C   UNL     1      -6.849  28.669  80.225  0.00  0.00    +0.000 A 
ATOM     15  O   UNL     1      -5.704  28.500  81.006  0.00  0.00    +0.000 OA
ATOM     16  C   UNL     1      -7.162  29.839  79.586  0.00  0.00    +0.000 A 
ATOM     17  C   UNL     1      -8.072  29.852  78.535  0.00  0.00    +0.000 A 
ENDBRANCH  10  11
ENDBRANCH   3   9
BRANCH   5  18
ATOM     18  O   UNL     1     -14.335  28.011  78.005  0.00  0.00    +0.000 OA
ATOM     19  C   UNL     1     -14.478  28.220  79.406  0.00  0.00    +0.000 C 
ENDBRANCH   5  18
BRANCH   6  20
ATOM     20  O   UNL     1     -14.987  30.301  76.482  0.00  0.00    +0.000 OA
ATOM     21  C   UNL     1     -15.323  31.344  77.380  0.00  0.00    +0.000 C 
ENDBRANCH   6  20
TORSDOF 5
ENDMDL
MODEL 10
REMARK VINA RESULT:       0.0     16.865     19.785
REMARK  Name = 
REMARK  5 active torsions:
REMARK  status: ('A' for Active; 'I' for Inactive)
REMARK    1  A    between atoms: O_2  and  C_3
REMARK    2  A    between atoms: C_5  and  C_6
REMARK    3  A    between atoms: C_7  and  C_8
REMARK    4  A    between atoms: C_16  and  O_17
REMARK    5  A    between atoms: C_19  and  O_20
REMARK                            x       y       z     vdW  Elec       q    Type
REMARK                         _______ _______ _______ _____ _____    ______ ____
ROOT
ATOM      1  C   UNL     1       6.927  24.167  56.898  0.00  0.00    +0.000 A 
ATOM      2  C   UNL     1       5.785  23.432  57.191  0.00  0.00    +0.000 A 
ATOM      3  C   UNL     1       4.511  23.958  57.004  0.00  0.00    +0.000 A 
ATOM      4  C   UNL     1       4.485  25.162  56.308  0.00  0.00    +0.000 A 
ATOM      5  C   UNL     1       5.503  26.063  56.547  0.00  0.00    +0.000 A 
ATOM      6  C   UNL     1       6.766  25.534  56.723  0.00  0.00    +0.000 A 
ENDROOT
BRANCH   1   8
ATOM      7  C   UNL     1       8.839  23.150  57.949  0.00  0.00    +0.000 C 
ATOM      8  O   UNL     1       8.182  23.569  56.761  0.00  0.00    +0.000 OA
ENDBRANCH   1   8
BRANCH   3   9
ATOM      9  C   UNL     1       3.469  22.998  56.609  0.00  0.00    +0.000 C 
ATOM     10  C   UNL     1       2.944  22.317  57.629  0.00  0.00    +0.000 C 
BRANCH  10  11
ATOM     11  C   UNL     1       2.342  23.158  58.674  0.00  0.00    +0.000 A 
ATOM     12  C   UNL     1       1.082  23.688  58.452  0.00  0.00    +0.000 A 
ATOM     13  C   UNL     1       0.130  23.829  59.424  0.00  0.00    +0.000 A 
ATOM     14  C   UNL     1       0.338  23.251  60.659  0.00  0.00    +0.000 A 
ATOM     15  O   UNL     1      -0.789  22.966  61.433  0.00  0.00    +0.000 OA
ATOM     16  C   UNL     1       1.594  22.795  60.958  0.00  0.00    +0.000 A 
ATOM     17  C   UNL     1       2.589  22.771  59.987  0.00  0.00    +0.000 A 
ENDBRANCH  10  11
ENDBRANCH   3   9
BRANCH   5  18
ATOM     18  O   UNL     1       5.278  27.391  56.202  0.00  0.00    +0.000 OA
ATOM     19  C   UNL     1       4.912  28.357  57.183  0.00  0.00    +0.000 C 
ENDBRANCH   5  18
BRANCH   6  20
ATOM     20  O   UNL     1       7.875  26.353  56.601  0.00  0.00    +0.000 OA
ATOM     21  C   UNL     1       8.407  26.940  57.774  0.00  0.00    +0.000 C 
ENDBRANCH   6  20
TORSDOF 5
ENDMDL
