REMARK  Name = 
REMARK  3 active torsions:
REMARK  status: ('A' for Active; 'I' for Inactive)
REMARK    1  A    between atoms: O_2  and  C_3
REMARK    2  A    between atoms: C_8  and  C_9
REMARK    3  A    between atoms: C_10  and  C_11
REMARK                            x       y       z     vdW  Elec       q    Type
REMARK                         _______ _______ _______ _____ _____    ______ ____
ROOT
ATOM      1  C   UNL     1      -3.774  -0.377  -0.074  0.00  0.00    +0.000 A 
ATOM      2  C   UNL     1      -3.839   0.622   0.867  0.00  0.00    +0.000 A 
ATOM      3  C   UNL     1      -2.751   1.475   1.010  0.00  0.00    +0.000 A 
ATOM      4  O   UNL     1      -2.828   2.660   1.723  0.00  0.00    +0.000 OA
ATOM      5  C   UNL     1      -1.560   1.046   0.483  0.00  0.00    +0.000 A 
ATOM      6  C   UNL     1      -1.399  -0.175  -0.159  0.00  0.00    +0.000 A 
ATOM      7  C   UNL     1      -2.539  -0.842  -0.509  0.00  0.00    +0.000 A 
ENDROOT
BRANCH   1   9
ATOM      8  C   UNL     1      -5.213  -1.716  -1.462  0.00  0.00    +0.000 C 
ATOM      9  O   UNL     1      -4.846  -1.270  -0.165  0.00  0.00    +0.000 OA
ENDBRANCH   1   9
BRANCH   6  10
ATOM     10  C   UNL     1      -0.095  -0.397  -0.798  0.00  0.00    +0.000 C 
ATOM     11  C   UNL     1       0.906  -1.004  -0.202  0.00  0.00    +0.000 C 
BRANCH  11  12
ATOM     12  C   UNL     1       2.271  -0.512  -0.167  0.00  0.00    +0.000 A 
ATOM     13  C   UNL     1       2.635   0.691   0.415  0.00  0.00    +0.000 A 
ATOM     14  C   UNL     1       3.928   1.129   0.466  0.00  0.00    +0.000 A 
ATOM     15  C   UNL     1       4.957   0.254   0.216  0.00  0.00    +0.000 A 
ATOM     16  O   UNL     1       6.201   0.817  -0.059  0.00  0.00    +0.000 OA
ATOM     17  C   UNL     1       4.630  -1.009  -0.247  0.00  0.00    +0.000 A 
ATOM     18  C   UNL     1       3.317  -1.390  -0.423  0.00  0.00    +0.000 A 
ENDBRANCH  11  12
ENDBRANCH   6  10
TORSDOF 3
