REMARK  Name = 
REMARK  4 active torsions:
REMARK  status: ('A' for Active; 'I' for Inactive)
REMARK    1  A    between atoms: C_2  and  O_4
REMARK    2  A    between atoms: O_4  and  C_5
REMARK    3  A    between atoms: C_8  and  C_9
REMARK    4  A    between atoms: C_10  and  C_11
REMARK                            x       y       z     vdW  Elec       q    Type
REMARK                         _______ _______ _______ _____ _____    ______ ____
ROOT
ATOM      1  C   UNL     1       3.370  -0.268  -0.323  0.00  0.00    +0.000 A 
ATOM      2  C   UNL     1       2.375   0.405  -1.022  0.00  0.00    +0.000 A 
ATOM      3  C   UNL     1       1.081   0.005  -0.803  0.00  0.00    +0.000 A 
ATOM      4  C   UNL     1       0.744  -1.075   0.001  0.00  0.00    +0.000 A 
ATOM      5  C   UNL     1       1.781  -1.944   0.316  0.00  0.00    +0.000 A 
ATOM      6  C   UNL     1       3.093  -1.517   0.159  0.00  0.00    +0.000 A 
ENDROOT
BRANCH   4   7
ATOM      7  C   UNL     1      -0.648  -1.373   0.360  0.00  0.00    +0.000 C 
ATOM      8  C   UNL     1      -1.335  -0.684   1.242  0.00  0.00    +0.000 C 
BRANCH   8   9
ATOM      9  C   UNL     1      -2.684  -0.161   0.991  0.00  0.00    +0.000 A 
ATOM     10  C   UNL     1      -2.748   1.161   0.577  0.00  0.00    +0.000 A 
ATOM     11  C   UNL     1      -3.682   1.602  -0.351  0.00  0.00    +0.000 A 
ATOM     12  O   UNL     1      -3.724   2.948  -0.704  0.00  0.00    +0.000 OA
ATOM     13  C   UNL     1      -4.669   0.738  -0.780  0.00  0.00    +0.000 A 
ATOM     14  C   UNL     1      -4.787  -0.469  -0.129  0.00  0.00    +0.000 A 
ATOM     15  O   UNL     1      -5.975  -1.186  -0.207  0.00  0.00    +0.000 OA
ATOM     16  C   UNL     1      -3.737  -0.972   0.619  0.00  0.00    +0.000 A 
ENDBRANCH   8   9
ENDBRANCH   4   7
BRANCH   1  17
ATOM     17  O   UNL     1       4.668   0.221  -0.496  0.00  0.00    +0.000 OA
BRANCH  17  19
ATOM     18  C   UNL     1       6.197   1.929   0.576  0.00  0.00    +0.000 C 
ATOM     19  C   UNL     1       5.346   0.701   0.620  0.00  0.00    +0.000 C 
ATOM     20  O   UNL     1       5.333  -0.062   1.629  0.00  0.00    +0.000 OA
ENDBRANCH  17  19
ENDBRANCH   1  17
TORSDOF 4
