MODEL 1
REMARK VINA RESULT:      -0.0      0.000      0.000
REMARK  Name = 
REMARK  4 active torsions:
REMARK  status: ('A' for Active; 'I' for Inactive)
REMARK    1  A    between atoms: C_2  and  O_4
REMARK    2  A    between atoms: O_4  and  C_5
REMARK    3  A    between atoms: C_8  and  C_9
REMARK    4  A    between atoms: C_10  and  C_11
REMARK                            x       y       z     vdW  Elec       q    Type
REMARK                         _______ _______ _______ _____ _____    ______ ____
ROOT
ATOM      1  C   UNL     1      -0.006  28.451  75.973  0.00  0.00    +0.000 A 
ATOM      2  C   UNL     1      -1.146  28.788  75.254  0.00  0.00    +0.000 A 
ATOM      3  C   UNL     1      -1.023  29.789  74.324  0.00  0.00    +0.000 A 
ATOM      4  C   UNL     1       0.143  30.519  74.142  0.00  0.00    +0.000 A 
ATOM      5  C   UNL     1       1.084  30.424  75.159  0.00  0.00    +0.000 A 
ATOM      6  C   UNL     1       1.001  29.372  76.062  0.00  0.00    +0.000 A 
ENDROOT
BRANCH   4   7
ATOM      7  C   UNL     1       0.306  31.460  73.027  0.00  0.00    +0.000 C 
ATOM      8  C   UNL     1       1.219  32.403  72.998  0.00  0.00    +0.000 C 
BRANCH   8   9
ATOM      9  C   UNL     1       2.115  32.631  71.858  0.00  0.00    +0.000 A 
ATOM     10  C   UNL     1       3.050  31.634  71.620  0.00  0.00    +0.000 A 
ATOM     11  C   UNL     1       3.433  31.268  70.337  0.00  0.00    +0.000 A 
ATOM     12  O   UNL     1       4.402  30.285  70.158  0.00  0.00    +0.000 OA
ATOM     13  C   UNL     1       2.978  32.002  69.260  0.00  0.00    +0.000 A 
ATOM     14  C   UNL     1       2.308  33.175  69.526  0.00  0.00    +0.000 A 
ATOM     15  O   UNL     1       2.199  34.149  68.540  0.00  0.00    +0.000 OA
ATOM     16  C   UNL     1       1.754  33.404  70.773  0.00  0.00    +0.000 A 
ENDBRANCH   8   9
ENDBRANCH   4   7
BRANCH   1  17
ATOM     17  O   UNL     1      -0.138  27.367  76.846  0.00  0.00    +0.000 OA
BRANCH  17  19
ATOM     18  C   UNL     1       0.974  25.681  75.321  0.00  0.00    +0.000 C 
ATOM     19  C   UNL     1      -0.066  26.082  76.318  0.00  0.00    +0.000 C 
ATOM     20  O   UNL     1      -1.037  25.324  76.605  0.00  0.00    +0.000 OA
ENDBRANCH  17  19
ENDBRANCH   1  17
TORSDOF 4
ENDMDL
MODEL 2
REMARK VINA RESULT:      -0.0     27.516     30.276
REMARK  Name = 
REMARK  4 active torsions:
REMARK  status: ('A' for Active; 'I' for Inactive)
REMARK    1  A    between atoms: C_2  and  O_4
REMARK    2  A    between atoms: O_4  and  C_5
REMARK    3  A    between atoms: C_8  and  C_9
REMARK    4  A    between atoms: C_10  and  C_11
REMARK                            x       y       z     vdW  Elec       q    Type
REMARK                         _______ _______ _______ _____ _____    ______ ____
ROOT
ATOM      1  C   UNL     1      16.542  11.701  52.544  0.00  0.00    +0.000 A 
ATOM      2  C   UNL     1      16.117  11.377  51.261  0.00  0.00    +0.000 A 
ATOM      3  C   UNL     1      14.779  11.521  50.992  0.00  0.00    +0.000 A 
ATOM      4  C   UNL     1      13.845  11.883  51.953  0.00  0.00    +0.000 A 
ATOM      5  C   UNL     1      14.261  11.776  53.274  0.00  0.00    +0.000 A 
ATOM      6  C   UNL     1      15.619  11.699  53.552  0.00  0.00    +0.000 A 
ENDROOT
BRANCH   4   7
ATOM      7  C   UNL     1      12.455  12.201  51.605  0.00  0.00    +0.000 C 
ATOM      8  C   UNL     1      11.490  12.309  52.489  0.00  0.00    +0.000 C 
BRANCH   8   9
ATOM      9  C   UNL     1      10.563  13.447  52.544  0.00  0.00    +0.000 A 
ATOM     10  C   UNL     1      11.132  14.670  52.867  0.00  0.00    +0.000 A 
ATOM     11  C   UNL     1      10.700  15.861  52.299  0.00  0.00    +0.000 A 
ATOM     12  O   UNL     1      11.283  17.064  52.686  0.00  0.00    +0.000 OA
ATOM     13  C   UNL     1       9.583  15.857  51.488  0.00  0.00    +0.000 A 
ATOM     14  C   UNL     1       8.843  14.698  51.427  0.00  0.00    +0.000 A 
ATOM     15  O   UNL     1       7.523  14.740  50.994  0.00  0.00    +0.000 OA
ATOM     16  C   UNL     1       9.395  13.488  51.810  0.00  0.00    +0.000 A 
ENDBRANCH   8   9
ENDBRANCH   4   7
BRANCH   1  17
ATOM     17  O   UNL     1      17.921  11.633  52.760  0.00  0.00    +0.000 OA
BRANCH  17  19
ATOM     18  C   UNL     1      18.339  14.121  52.562  0.00  0.00    +0.000 C 
ATOM     19  C   UNL     1      18.710  12.693  52.324  0.00  0.00    +0.000 C 
ATOM     20  O   UNL     1      19.672  12.374  51.568  0.00  0.00    +0.000 OA
ENDBRANCH  17  19
ENDBRANCH   1  17
TORSDOF 4
ENDMDL
MODEL 3
REMARK VINA RESULT:      -0.0      8.720     11.771
REMARK  Name = 
REMARK  4 active torsions:
REMARK  status: ('A' for Active; 'I' for Inactive)
REMARK    1  A    between atoms: C_2  and  O_4
REMARK    2  A    between atoms: O_4  and  C_5
REMARK    3  A    between atoms: C_8  and  C_9
REMARK    4  A    between atoms: C_10  and  C_11
REMARK                            x       y       z     vdW  Elec       q    Type
REMARK                         _______ _______ _______ _____ _____    ______ ____
ROOT
ATOM      1  C   UNL     1       2.607  38.448  70.503  0.00  0.00    +0.000 A 
ATOM      2  C   UNL     1       2.902  37.427  71.399  0.00  0.00    +0.000 A 
ATOM      3  C   UNL     1       4.076  37.536  72.101  0.00  0.00    +0.000 A 
ATOM      4  C   UNL     1       4.997  38.553  71.891  0.00  0.00    +0.000 A 
ATOM      5  C   UNL     1       4.845  39.276  70.714  0.00  0.00    +0.000 A 
ATOM      6  C   UNL     1       3.634  39.221  70.038  0.00  0.00    +0.000 A 
ENDROOT
BRANCH   4   7
ATOM      7  C   UNL     1       6.156  38.748  72.772  0.00  0.00    +0.000 C 
ATOM      8  C   UNL     1       7.180  39.511  72.468  0.00  0.00    +0.000 C 
BRANCH   8   9
ATOM      9  C   UNL     1       7.730  40.528  73.372  0.00  0.00    +0.000 A 
ATOM     10  C   UNL     1       6.897  41.603  73.645  0.00  0.00    +0.000 A 
ATOM     11  C   UNL     1       6.856  42.210  74.893  0.00  0.00    +0.000 A 
ATOM     12  O   UNL     1       6.026  43.308  75.101  0.00  0.00    +0.000 OA
ATOM     13  C   UNL     1       7.764  41.829  75.861  0.00  0.00    +0.000 A 
ATOM     14  C   UNL     1       8.786  40.989  75.480  0.00  0.00    +0.000 A 
ATOM     15  O   UNL     1       9.938  40.905  76.253  0.00  0.00    +0.000 OA
ATOM     16  C   UNL     1       8.687  40.236  74.324  0.00  0.00    +0.000 A 
ENDBRANCH   8   9
ENDBRANCH   4   7
BRANCH   1  17
ATOM     17  O   UNL     1       1.363  38.357  69.871  0.00  0.00    +0.000 OA
BRANCH  17  19
ATOM     18  C   UNL     1       0.187  40.026  71.367  0.00  0.00    +0.000 C 
ATOM     19  C   UNL     1       0.234  38.756  70.578  0.00  0.00    +0.000 C 
ATOM     20  O   UNL     1      -0.691  37.896  70.651  0.00  0.00    +0.000 OA
ENDBRANCH  17  19
ENDBRANCH   1  17
TORSDOF 4
ENDMDL
MODEL 4
REMARK VINA RESULT:      -0.0      8.407     10.972
REMARK  Name = 
REMARK  4 active torsions:
REMARK  status: ('A' for Active; 'I' for Inactive)
REMARK    1  A    between atoms: C_2  and  O_4
REMARK    2  A    between atoms: O_4  and  C_5
REMARK    3  A    between atoms: C_8  and  C_9
REMARK    4  A    between atoms: C_10  and  C_11
REMARK                            x       y       z     vdW  Elec       q    Type
REMARK                         _______ _______ _______ _____ _____    ______ ____
ROOT
ATOM      1  C   UNL     1      -4.916  37.470  69.236  0.00  0.00    +0.000 A 
ATOM      2  C   UNL     1      -5.597  37.288  70.434  0.00  0.00    +0.000 A 
ATOM      3  C   UNL     1      -4.837  37.121  71.564  0.00  0.00    +0.000 A 
ATOM      4  C   UNL     1      -3.451  37.040  71.544  0.00  0.00    +0.000 A 
ATOM      5  C   UNL     1      -2.875  36.804  70.302  0.00  0.00    +0.000 A 
ATOM      6  C   UNL     1      -3.621  37.037  69.154  0.00  0.00    +0.000 A 
ENDROOT
BRANCH   4   7
ATOM      7  C   UNL     1      -2.654  37.040  72.776  0.00  0.00    +0.000 C 
ATOM      8  C   UNL     1      -1.378  36.731  72.817  0.00  0.00    +0.000 C 
BRANCH   8   9
ATOM      9  C   UNL     1      -0.365  37.557  73.486  0.00  0.00    +0.000 A 
ATOM     10  C   UNL     1      -0.152  38.811  72.933  0.00  0.00    +0.000 A 
ATOM     11  C   UNL     1       0.126  39.926  73.713  0.00  0.00    +0.000 A 
ATOM     12  O   UNL     1       0.366  41.154  73.102  0.00  0.00    +0.000 OA
ATOM     13  C   UNL     1       0.333  39.770  75.068  0.00  0.00    +0.000 A 
ATOM     14  C   UNL     1       0.432  38.486  75.554  0.00  0.00    +0.000 A 
ATOM     15  O   UNL     1       1.042  38.253  76.780  0.00  0.00    +0.000 OA
ATOM     16  C   UNL     1      -0.058  37.417  74.825  0.00  0.00    +0.000 A 
ENDBRANCH   8   9
ENDBRANCH   4   7
BRANCH   1  17
ATOM     17  O   UNL     1      -5.714  37.729  68.119  0.00  0.00    +0.000 OA
BRANCH  17  19
ATOM     18  C   UNL     1      -5.327  40.229  68.095  0.00  0.00    +0.000 C 
ATOM     19  C   UNL     1      -6.194  39.022  67.936  0.00  0.00    +0.000 C 
ATOM     20  O   UNL     1      -7.447  39.118  67.795  0.00  0.00    +0.000 OA
ENDBRANCH  17  19
ENDBRANCH   1  17
TORSDOF 4
ENDMDL
MODEL 5
REMARK VINA RESULT:      -0.0     33.213     35.024
REMARK  Name = 
REMARK  4 active torsions:
REMARK  status: ('A' for Active; 'I' for Inactive)
REMARK    1  A    between atoms: C_2  and  O_4
REMARK    2  A    between atoms: O_4  and  C_5
REMARK    3  A    between atoms: C_8  and  C_9
REMARK    4  A    between atoms: C_10  and  C_11
REMARK                            x       y       z     vdW  Elec       q    Type
REMARK                         _______ _______ _______ _____ _____    ______ ____
ROOT
ATOM      1  C   UNL     1      -7.766   8.052  51.734  0.00  0.00    +0.000 A 
ATOM      2  C   UNL     1      -8.024   7.953  50.372  0.00  0.00    +0.000 A 
ATOM      3  C   UNL     1      -7.216   7.117  49.644  0.00  0.00    +0.000 A 
ATOM      4  C   UNL     1      -6.125   6.452  50.185  0.00  0.00    +0.000 A 
ATOM      5  C   UNL     1      -5.679   6.918  51.416  0.00  0.00    +0.000 A 
ATOM      6  C   UNL     1      -6.522   7.709  52.185  0.00  0.00    +0.000 A 
ENDROOT
BRANCH   4   7
ATOM      7  C   UNL     1      -5.385   5.430  49.434  0.00  0.00    +0.000 C 
ATOM      8  C   UNL     1      -4.232   4.936  49.820  0.00  0.00    +0.000 C 
BRANCH   8   9
ATOM      9  C   UNL     1      -3.946   3.497  49.885  0.00  0.00    +0.000 A 
ATOM     10  C   UNL     1      -4.691   2.779  50.808  0.00  0.00    +0.000 A 
ATOM     11  C   UNL     1      -5.126   1.483  50.561  0.00  0.00    +0.000 A 
ATOM     12  O   UNL     1      -5.842   0.795  51.537  0.00  0.00    +0.000 OA
ATOM     13  C   UNL     1      -4.695   0.831  49.423  0.00  0.00    +0.000 A 
ATOM     14  C   UNL     1      -3.709   1.434  48.677  0.00  0.00    +0.000 A 
ATOM     15  O   UNL     1      -2.946   0.679  47.794  0.00  0.00    +0.000 OA
ATOM     16  C   UNL     1      -3.455   2.788  48.808  0.00  0.00    +0.000 A 
ENDBRANCH   8   9
ENDBRANCH   4   7
BRANCH   1  17
ATOM     17  O   UNL     1      -8.661   8.838  52.464  0.00  0.00    +0.000 OA
BRANCH  17  19
ATOM     18  C   UNL     1     -10.005   6.906  53.395  0.00  0.00    +0.000 C 
ATOM     19  C   UNL     1      -9.885   8.283  52.825  0.00  0.00    +0.000 C 
ATOM     20  O   UNL     1     -10.903   8.951  52.482  0.00  0.00    +0.000 OA
ENDBRANCH  17  19
ENDBRANCH   1  17
TORSDOF 4
ENDMDL
MODEL 6
REMARK VINA RESULT:      -0.0     16.556     19.557
REMARK  Name = 
REMARK  4 active torsions:
REMARK  status: ('A' for Active; 'I' for Inactive)
REMARK    1  A    between atoms: C_2  and  O_4
REMARK    2  A    between atoms: O_4  and  C_5
REMARK    3  A    between atoms: C_8  and  C_9
REMARK    4  A    between atoms: C_10  and  C_11
REMARK                            x       y       z     vdW  Elec       q    Type
REMARK                         _______ _______ _______ _____ _____    ______ ____
ROOT
ATOM      1  C   UNL     1      16.788  20.560  63.582  0.00  0.00    +0.000 A 
ATOM      2  C   UNL     1      17.077  20.575  62.222  0.00  0.00    +0.000 A 
ATOM      3  C   UNL     1      16.030  20.799  61.365  0.00  0.00    +0.000 A 
ATOM      4  C   UNL     1      14.713  20.921  61.787  0.00  0.00    +0.000 A 
ATOM      5  C   UNL     1      14.446  20.479  63.077  0.00  0.00    +0.000 A 
ATOM      6  C   UNL     1      15.499  20.316  63.968  0.00  0.00    +0.000 A 
ENDROOT
BRANCH   4   7
ATOM      7  C   UNL     1      13.639  21.334  60.876  0.00  0.00    +0.000 C 
ATOM      8  C   UNL     1      12.363  21.138  61.119  0.00  0.00    +0.000 C 
BRANCH   8   9
ATOM      9  C   UNL     1      11.345  22.190  61.007  0.00  0.00    +0.000 A 
ATOM     10  C   UNL     1      11.402  23.187  61.969  0.00  0.00    +0.000 A 
ATOM     11  C   UNL     1      11.112  24.513  61.679  0.00  0.00    +0.000 A 
ATOM     12  O   UNL     1      11.151  25.467  62.692  0.00  0.00    +0.000 OA
ATOM     13  C   UNL     1      10.618  24.841  60.433  0.00  0.00    +0.000 A 
ATOM     14  C   UNL     1      10.268  23.807  59.594  0.00  0.00    +0.000 A 
ATOM     15  O   UNL     1       9.399  24.038  58.534  0.00  0.00    +0.000 OA
ATOM     16  C   UNL     1      10.760  22.531  59.804  0.00  0.00    +0.000 A 
ENDBRANCH   8   9
ENDBRANCH   4   7
BRANCH   1  17
ATOM     17  O   UNL     1      17.887  20.422  64.433  0.00  0.00    +0.000 OA
BRANCH  17  19
ATOM     18  C   UNL     1      18.079  22.876  65.020  0.00  0.00    +0.000 C 
ATOM     19  C   UNL     1      18.670  21.544  64.688  0.00  0.00    +0.000 C 
ATOM     20  O   UNL     1      19.905  21.405  64.454  0.00  0.00    +0.000 OA
ENDBRANCH  17  19
ENDBRANCH   1  17
TORSDOF 4
ENDMDL
MODEL 7
REMARK VINA RESULT:       0.0     10.880     13.609
REMARK  Name = 
REMARK  4 active torsions:
REMARK  status: ('A' for Active; 'I' for Inactive)
REMARK    1  A    between atoms: C_2  and  O_4
REMARK    2  A    between atoms: O_4  and  C_5
REMARK    3  A    between atoms: C_8  and  C_9
REMARK    4  A    between atoms: C_10  and  C_11
REMARK                            x       y       z     vdW  Elec       q    Type
REMARK                         _______ _______ _______ _____ _____    ______ ____
ROOT
ATOM      1  C   UNL     1       6.277  25.526  60.455  0.00  0.00    +0.000 A 
ATOM      2  C   UNL     1       6.359  24.715  61.581  0.00  0.00    +0.000 A 
ATOM      3  C   UNL     1       7.151  25.159  62.610  0.00  0.00    +0.000 A 
ATOM      4  C   UNL     1       7.921  26.311  62.536  0.00  0.00    +0.000 A 
ATOM      5  C   UNL     1       8.120  26.827  61.262  0.00  0.00    +0.000 A 
ATOM      6  C   UNL     1       7.277  26.431  60.232  0.00  0.00    +0.000 A 
ENDROOT
BRANCH   4   7
ATOM      7  C   UNL     1       8.618  26.857  63.707  0.00  0.00    +0.000 C 
ATOM      8  C   UNL     1       9.602  27.724  63.629  0.00  0.00    +0.000 C 
BRANCH   8   9
ATOM      9  C   UNL     1       9.655  28.965  64.412  0.00  0.00    +0.000 A 
ATOM     10  C   UNL     1       8.702  29.919  64.090  0.00  0.00    +0.000 A 
ATOM     11  C   UNL     1       8.108  30.727  65.050  0.00  0.00    +0.000 A 
ATOM     12  O   UNL     1       7.183  31.694  64.665  0.00  0.00    +0.000 OA
ATOM     13  C   UNL     1       8.568  30.682  66.350  0.00  0.00    +0.000 A 
ATOM     14  C   UNL     1       9.719  29.967  66.595  0.00  0.00    +0.000 A 
ATOM     15  O   UNL     1      10.458  30.214  67.746  0.00  0.00    +0.000 OA
ATOM     16  C   UNL     1      10.159  29.011  65.696  0.00  0.00    +0.000 A 
ENDBRANCH   8   9
ENDBRANCH   4   7
BRANCH   1  17
ATOM     17  O   UNL     1       5.392  25.094  59.462  0.00  0.00    +0.000 OA
BRANCH  17  19
ATOM     18  C   UNL     1       3.505  26.660  60.085  0.00  0.00    +0.000 C 
ATOM     19  C   UNL     1       4.034  25.335  59.639  0.00  0.00    +0.000 C 
ATOM     20  O   UNL     1       3.290  24.315  59.563  0.00  0.00    +0.000 OA
ENDBRANCH  17  19
ENDBRANCH   1  17
TORSDOF 4
ENDMDL
MODEL 8
REMARK VINA RESULT:       0.0     20.151     21.651
REMARK  Name = 
REMARK  4 active torsions:
REMARK  status: ('A' for Active; 'I' for Inactive)
REMARK    1  A    between atoms: C_2  and  O_4
REMARK    2  A    between atoms: O_4  and  C_5
REMARK    3  A    between atoms: C_8  and  C_9
REMARK    4  A    between atoms: C_10  and  C_11
REMARK                            x       y       z     vdW  Elec       q    Type
REMARK                         _______ _______ _______ _____ _____    ______ ____
ROOT
ATOM      1  C   UNL     1     -10.053  21.400  54.861  0.00  0.00    +0.000 A 
ATOM      2  C   UNL     1      -9.099  21.101  53.896  0.00  0.00    +0.000 A 
ATOM      3  C   UNL     1      -8.371  22.151  53.394  0.00  0.00    +0.000 A 
ATOM      4  C   UNL     1      -8.606  23.474  53.739  0.00  0.00    +0.000 A 
ATOM      5  C   UNL     1      -9.821  23.732  54.361  0.00  0.00    +0.000 A 
ATOM      6  C   UNL     1     -10.528  22.681  54.929  0.00  0.00    +0.000 A 
ENDROOT
BRANCH   4   7
ATOM      7  C   UNL     1      -7.704  24.557  53.328  0.00  0.00    +0.000 C 
ATOM      8  C   UNL     1      -8.022  25.830  53.389  0.00  0.00    +0.000 C 
BRANCH   8   9
ATOM      9  C   UNL     1      -7.162  26.853  53.998  0.00  0.00    +0.000 A 
ATOM     10  C   UNL     1      -6.978  26.743  55.369  0.00  0.00    +0.000 A 
ATOM     11  C   UNL     1      -5.770  27.048  55.980  0.00  0.00    +0.000 A 
ATOM     12  O   UNL     1      -5.652  26.954  57.364  0.00  0.00    +0.000 OA
ATOM     13  C   UNL     1      -4.755  27.607  55.231  0.00  0.00    +0.000 A 
ATOM     14  C   UNL     1      -5.053  28.003  53.947  0.00  0.00    +0.000 A 
ATOM     15  O   UNL     1      -4.242  28.927  53.299  0.00  0.00    +0.000 OA
ATOM     16  C   UNL     1      -6.166  27.500  53.296  0.00  0.00    +0.000 A 
ENDBRANCH   8   9
ENDBRANCH   4   7
BRANCH   1  17
ATOM     17  O   UNL     1     -10.714  20.303  55.419  0.00  0.00    +0.000 OA
BRANCH  17  19
ATOM     18  C   UNL     1      -9.336  20.203  57.539  0.00  0.00    +0.000 C 
ATOM     19  C   UNL     1     -10.055  19.563  56.396  0.00  0.00    +0.000 C 
ATOM     20  O   UNL     1      -9.958  18.324  56.161  0.00  0.00    +0.000 OA
ENDBRANCH  17  19
ENDBRANCH   1  17
TORSDOF 4
ENDMDL
MODEL 9
REMARK VINA RESULT:       0.0     24.295     29.910
REMARK  Name = 
REMARK  4 active torsions:
REMARK  status: ('A' for Active; 'I' for Inactive)
REMARK    1  A    between atoms: C_2  and  O_4
REMARK    2  A    between atoms: O_4  and  C_5
REMARK    3  A    between atoms: C_8  and  C_9
REMARK    4  A    between atoms: C_10  and  C_11
REMARK                            x       y       z     vdW  Elec       q    Type
REMARK                         _______ _______ _______ _____ _____    ______ ____
ROOT
ATOM      1  C   UNL     1      -8.328   6.930  80.114  0.00  0.00    +0.000 A 
ATOM      2  C   UNL     1      -8.087   5.830  79.300  0.00  0.00    +0.000 A 
ATOM      3  C   UNL     1      -8.889   4.732  79.483  0.00  0.00    +0.000 A 
ATOM      4  C   UNL     1      -9.849   4.649  80.483  0.00  0.00    +0.000 A 
ATOM      5  C   UNL     1      -9.745   5.587  81.502  0.00  0.00    +0.000 A 
ATOM      6  C   UNL     1      -8.988   6.732  81.294  0.00  0.00    +0.000 A 
ENDROOT
BRANCH   4   7
ATOM      7  C   UNL     1     -10.810   3.542  80.547  0.00  0.00    +0.000 C 
ATOM      8  C   UNL     1     -11.560   3.290  81.596  0.00  0.00    +0.000 C 
BRANCH   8   9
ATOM      9  C   UNL     1     -13.010   3.072  81.523  0.00  0.00    +0.000 A 
ATOM     10  C   UNL     1     -13.763   4.166  81.124  0.00  0.00    +0.000 A 
ATOM     11  C   UNL     1     -14.892   4.037  80.326  0.00  0.00    +0.000 A 
ATOM     12  O   UNL     1     -15.630   5.167  79.984  0.00  0.00    +0.000 OA
ATOM     13  C   UNL     1     -15.368   2.777  80.027  0.00  0.00    +0.000 A 
ATOM     14  C   UNL     1     -14.802   1.708  80.685  0.00  0.00    +0.000 A 
ATOM     15  O   UNL     1     -15.484   0.500  80.760  0.00  0.00    +0.000 OA
ATOM     16  C   UNL     1     -13.563   1.829  81.289  0.00  0.00    +0.000 A 
ENDBRANCH   8   9
ENDBRANCH   4   7
BRANCH   1  17
ATOM     17  O   UNL     1      -7.558   8.065  79.843  0.00  0.00    +0.000 OA
BRANCH  17  19
ATOM     18  C   UNL     1      -9.344   9.318  78.561  0.00  0.00    +0.000 C 
ATOM     19  C   UNL     1      -7.932   8.877  78.777  0.00  0.00    +0.000 C 
ATOM     20  O   UNL     1      -7.034   9.078  77.910  0.00  0.00    +0.000 OA
ENDBRANCH  17  19
ENDBRANCH   1  17
TORSDOF 4
ENDMDL
MODEL 10
REMARK VINA RESULT:       0.0     12.501     16.476
REMARK  Name = 
REMARK  4 active torsions:
REMARK  status: ('A' for Active; 'I' for Inactive)
REMARK    1  A    between atoms: C_2  and  O_4
REMARK    2  A    between atoms: O_4  and  C_5
REMARK    3  A    between atoms: C_8  and  C_9
REMARK    4  A    between atoms: C_10  and  C_11
REMARK                            x       y       z     vdW  Elec       q    Type
REMARK                         _______ _______ _______ _____ _____    ______ ____
ROOT
ATOM      1  C   UNL     1      16.247  27.486  64.675  0.00  0.00    +0.000 A 
ATOM      2  C   UNL     1      15.262  28.439  64.445  0.00  0.00    +0.000 A 
ATOM      3  C   UNL     1      14.292  28.576  65.406  0.00  0.00    +0.000 A 
ATOM      4  C   UNL     1      14.209  27.760  66.526  0.00  0.00    +0.000 A 
ATOM      5  C   UNL     1      14.948  26.585  66.477  0.00  0.00    +0.000 A 
ATOM      6  C   UNL     1      15.976  26.471  65.550  0.00  0.00    +0.000 A 
ENDROOT
BRANCH   4   7
ATOM      7  C   UNL     1      13.274  28.038  67.623  0.00  0.00    +0.000 C 
ATOM      8  C   UNL     1      12.970  27.167  68.558  0.00  0.00    +0.000 C 
BRANCH   8   9
ATOM      9  C   UNL     1      13.001  27.474  69.993  0.00  0.00    +0.000 A 
ATOM     10  C   UNL     1      14.257  27.709  70.531  0.00  0.00    +0.000 A 
ATOM     11  C   UNL     1      14.472  28.655  71.524  0.00  0.00    +0.000 A 
ATOM     12  O   UNL     1      15.749  28.824  72.053  0.00  0.00    +0.000 OA
ATOM     13  C   UNL     1      13.390  29.290  72.099  0.00  0.00    +0.000 A 
ATOM     14  C   UNL     1      12.135  28.823  71.783  0.00  0.00    +0.000 A 
ATOM     15  O   UNL     1      11.058  29.112  72.612  0.00  0.00    +0.000 OA
ATOM     16  C   UNL     1      11.934  28.052  70.651  0.00  0.00    +0.000 A 
ENDBRANCH   8   9
ENDBRANCH   4   7
BRANCH   1  17
ATOM     17  O   UNL     1      17.271  27.433  63.726  0.00  0.00    +0.000 OA
BRANCH  17  19
ATOM     18  C   UNL     1      18.957  28.748  65.079  0.00  0.00    +0.000 C 
ATOM     19  C   UNL     1      18.285  28.383  63.795  0.00  0.00    +0.000 C 
ATOM     20  O   UNL     1      18.483  29.040  62.732  0.00  0.00    +0.000 OA
ENDBRANCH  17  19
ENDBRANCH   1  17
TORSDOF 4
ENDMDL
