REMARK  Name = 
REMARK  2 active torsions:
REMARK  status: ('A' for Active; 'I' for Inactive)
REMARK    1  A    between atoms: C_5  and  C_6
REMARK    2  A    between atoms: C_7  and  C_8
REMARK                            x       y       z     vdW  Elec       q    Type
REMARK                         _______ _______ _______ _____ _____    ______ ____
ROOT
ATOM      1  C   UNL     1       0.733  -0.766  -1.884  0.00  0.00    +0.000 C 
ATOM      2  C   UNL     1      -0.315   0.050  -1.829  0.00  0.00    +0.000 C 
ENDROOT
BRANCH   2   3
ATOM      3  C   UNL     1      -1.127  -0.061  -0.610  0.00  0.00    +0.000 A 
ATOM      4  C   UNL     1      -1.599   1.148  -0.111  0.00  0.00    +0.000 A 
ATOM      5  C   UNL     1      -2.760   1.273   0.603  0.00  0.00    +0.000 A 
ATOM      6  O   UNL     1      -3.125   2.515   1.130  0.00  0.00    +0.000 OA
ATOM      7  C   UNL     1      -3.607   0.201   0.690  0.00  0.00    +0.000 A 
ATOM      8  C   UNL     1      -3.244  -1.011   0.114  0.00  0.00    +0.000 A 
ATOM      9  O   UNL     1      -4.306  -1.890  -0.121  0.00  0.00    +0.000 OA
ATOM     10  C   UNL     1      -2.031  -1.116  -0.536  0.00  0.00    +0.000 A 
ENDBRANCH   2   3
BRANCH   1  15
ATOM     11  O   UNL     1       4.875   1.035   1.239  0.00  0.00    +0.000 OA
ATOM     12  C   UNL     1       3.842   0.450   0.529  0.00  0.00    +0.000 A 
ATOM     13  C   UNL     1       2.566   0.603   1.057  0.00  0.00    +0.000 A 
ATOM     14  C   UNL     1       1.498   0.112   0.328  0.00  0.00    +0.000 A 
ATOM     15  C   UNL     1       1.642  -0.721  -0.749  0.00  0.00    +0.000 A 
ATOM     16  C   UNL     1       2.937  -1.167  -0.997  0.00  0.00    +0.000 A 
ATOM     17  C   UNL     1       4.021  -0.654  -0.294  0.00  0.00    +0.000 A 
ENDBRANCH   1  15
TORSDOF 2
