MODEL 1
REMARK VINA RESULT:      -0.0      0.000      0.000
REMARK  Name = 
REMARK  2 active torsions:
REMARK  status: ('A' for Active; 'I' for Inactive)
REMARK    1  A    between atoms: C_5  and  C_6
REMARK    2  A    between atoms: C_7  and  C_8
REMARK                            x       y       z     vdW  Elec       q    Type
REMARK                         _______ _______ _______ _____ _____    ______ ____
ROOT
ATOM      1  C   UNL     1       8.879   4.627  59.937  0.00  0.00    +0.000 C 
ATOM      2  C   UNL     1       8.642   5.859  59.496  0.00  0.00    +0.000 C 
ENDROOT
BRANCH   2   3
ATOM      3  C   UNL     1       7.282   6.088  58.991  0.00  0.00    +0.000 A 
ATOM      4  C   UNL     1       6.695   7.276  59.411  0.00  0.00    +0.000 A 
ATOM      5  C   UNL     1       5.757   7.958  58.684  0.00  0.00    +0.000 A 
ATOM      6  O   UNL     1       5.166   9.109  59.212  0.00  0.00    +0.000 OA
ATOM      7  C   UNL     1       5.498   7.567  57.398  0.00  0.00    +0.000 A 
ATOM      8  C   UNL     1       6.137   6.448  56.877  0.00  0.00    +0.000 A 
ATOM      9  O   UNL     1       6.149   6.376  55.480  0.00  0.00    +0.000 OA
ATOM     10  C   UNL     1       7.023   5.745  57.668  0.00  0.00    +0.000 A 
ENDBRANCH   2   3
BRANCH   1  15
ATOM     11  O   UNL     1       4.281   4.328  62.923  0.00  0.00    +0.000 OA
ATOM     12  C   UNL     1       5.505   4.318  62.279  0.00  0.00    +0.000 A 
ATOM     13  C   UNL     1       5.724   3.276  61.387  0.00  0.00    +0.000 A 
ATOM     14  C   UNL     1       6.898   3.283  60.655  0.00  0.00    +0.000 A 
ATOM     15  C   UNL     1       7.952   4.111  60.932  0.00  0.00    +0.000 A 
ATOM     16  C   UNL     1       7.834   4.868  62.094  0.00  0.00    +0.000 A 
ATOM     17  C   UNL     1       6.647   4.895  62.818  0.00  0.00    +0.000 A 
ENDBRANCH   1  15
TORSDOF 2
ENDMDL
MODEL 2
REMARK VINA RESULT:      -0.0     29.709     32.457
REMARK  Name = 
REMARK  2 active torsions:
REMARK  status: ('A' for Active; 'I' for Inactive)
REMARK    1  A    between atoms: C_5  and  C_6
REMARK    2  A    between atoms: C_7  and  C_8
REMARK                            x       y       z     vdW  Elec       q    Type
REMARK                         _______ _______ _______ _____ _____    ______ ____
ROOT
ATOM      1  C   UNL     1      -9.961  32.829  53.417  0.00  0.00    +0.000 C 
ATOM      2  C   UNL     1     -10.425  33.831  54.158  0.00  0.00    +0.000 C 
ENDROOT
BRANCH   2   3
ATOM      3  C   UNL     1     -11.297  33.430  55.271  0.00  0.00    +0.000 A 
ATOM      4  C   UNL     1     -11.039  34.074  56.475  0.00  0.00    +0.000 A 
ATOM      5  C   UNL     1     -11.991  34.307  57.431  0.00  0.00    +0.000 A 
ATOM      6  O   UNL     1     -11.631  34.898  58.645  0.00  0.00    +0.000 OA
ATOM      7  C   UNL     1     -13.305  34.063  57.135  0.00  0.00    +0.000 A 
ATOM      8  C   UNL     1     -13.643  33.521  55.900  0.00  0.00    +0.000 A 
ATOM      9  O   UNL     1     -14.978  33.703  55.525  0.00  0.00    +0.000 OA
ATOM     10  C   UNL     1     -12.645  33.234  54.990  0.00  0.00    +0.000 A 
ENDBRANCH   2   3
BRANCH   1  15
ATOM     11  O   UNL     1      -8.435  29.767  57.712  0.00  0.00    +0.000 OA
ATOM     12  C   UNL     1      -8.699  30.480  56.556  0.00  0.00    +0.000 A 
ATOM     13  C   UNL     1      -9.512  29.857  55.618  0.00  0.00    +0.000 A 
ATOM     14  C   UNL     1      -9.874  30.574  54.493  0.00  0.00    +0.000 A 
ATOM     15  C   UNL     1      -9.287  31.758  54.135  0.00  0.00    +0.000 A 
ATOM     16  C   UNL     1      -8.192  32.145  54.902  0.00  0.00    +0.000 A 
ATOM     17  C   UNL     1      -7.842  31.451  56.055  0.00  0.00    +0.000 A 
ENDBRANCH   1  15
TORSDOF 2
ENDMDL
MODEL 3
REMARK VINA RESULT:      -0.0     37.387     39.229
REMARK  Name = 
REMARK  2 active torsions:
REMARK  status: ('A' for Active; 'I' for Inactive)
REMARK    1  A    between atoms: C_5  and  C_6
REMARK    2  A    between atoms: C_7  and  C_8
REMARK                            x       y       z     vdW  Elec       q    Type
REMARK                         _______ _______ _______ _____ _____    ______ ____
ROOT
ATOM      1  C   UNL     1      -8.620  36.763  80.674  0.00  0.00    +0.000 C 
ATOM      2  C   UNL     1      -8.528  37.805  79.855  0.00  0.00    +0.000 C 
ENDROOT
BRANCH   2   3
ATOM      3  C   UNL     1      -7.221  37.975  79.207  0.00  0.00    +0.000 A 
ATOM      4  C   UNL     1      -7.277  38.274  77.850  0.00  0.00    +0.000 A 
ATOM      5  C   UNL     1      -6.321  39.000  77.193  0.00  0.00    +0.000 A 
ATOM      6  O   UNL     1      -6.418  39.194  75.812  0.00  0.00    +0.000 OA
ATOM      7  C   UNL     1      -5.344  39.626  77.919  0.00  0.00    +0.000 A 
ATOM      8  C   UNL     1      -5.298  39.458  79.298  0.00  0.00    +0.000 A 
ATOM      9  O   UNL     1      -4.569  40.436  79.984  0.00  0.00    +0.000 OA
ATOM     10  C   UNL     1      -6.239  38.659  79.915  0.00  0.00    +0.000 A 
ENDBRANCH   2   3
BRANCH   1  15
ATOM     11  O   UNL     1      -6.328  33.227  77.153  0.00  0.00    +0.000 OA
ATOM     12  C   UNL     1      -6.992  34.001  78.088  0.00  0.00    +0.000 A 
ATOM     13  C   UNL     1      -6.433  34.048  79.359  0.00  0.00    +0.000 A 
ATOM     14  C   UNL     1      -7.015  34.884  80.294  0.00  0.00    +0.000 A 
ATOM     15  C   UNL     1      -8.238  35.474  80.118  0.00  0.00    +0.000 A 
ATOM     16  C   UNL     1      -8.942  35.074  78.986  0.00  0.00    +0.000 A 
ATOM     17  C   UNL     1      -8.354  34.263  78.023  0.00  0.00    +0.000 A 
ENDBRANCH   1  15
TORSDOF 2
ENDMDL
MODEL 4
REMARK VINA RESULT:      -0.0     18.459     20.731
REMARK  Name = 
REMARK  2 active torsions:
REMARK  status: ('A' for Active; 'I' for Inactive)
REMARK    1  A    between atoms: C_5  and  C_6
REMARK    2  A    between atoms: C_7  and  C_8
REMARK                            x       y       z     vdW  Elec       q    Type
REMARK                         _______ _______ _______ _____ _____    ______ ____
ROOT
ATOM      1  C   UNL     1      -6.288  18.599  60.255  0.00  0.00    +0.000 C 
ATOM      2  C   UNL     1      -7.440  19.008  60.778  0.00  0.00    +0.000 C 
ENDROOT
BRANCH   2   3
ATOM      3  C   UNL     1      -8.162  20.012  59.986  0.00  0.00    +0.000 A 
ATOM      4  C   UNL     1      -9.529  19.787  59.864  0.00  0.00    +0.000 A 
ATOM      5  C   UNL     1     -10.451  20.785  59.698  0.00  0.00    +0.000 A 
ATOM      6  O   UNL     1     -11.799  20.466  59.512  0.00  0.00    +0.000 OA
ATOM      7  C   UNL     1     -10.054  22.088  59.836  0.00  0.00    +0.000 A 
ATOM      8  C   UNL     1      -8.714  22.378  60.071  0.00  0.00    +0.000 A 
ATOM      9  O   UNL     1      -8.475  23.646  60.610  0.00  0.00    +0.000 OA
ATOM     10  C   UNL     1      -7.803  21.345  60.160  0.00  0.00    +0.000 A 
ENDBRANCH   2   3
BRANCH   1  15
ATOM     11  O   UNL     1      -8.340  17.811  55.223  0.00  0.00    +0.000 OA
ATOM     12  C   UNL     1      -7.732  17.891  56.463  0.00  0.00    +0.000 A 
ATOM     13  C   UNL     1      -6.595  18.686  56.543  0.00  0.00    +0.000 A 
ATOM     14  C   UNL     1      -6.013  18.864  57.785  0.00  0.00    +0.000 A 
ATOM     15  C   UNL     1      -6.341  18.117  58.884  0.00  0.00    +0.000 A 
ATOM     16  C   UNL     1      -7.212  17.055  58.652  0.00  0.00    +0.000 A 
ATOM     17  C   UNL     1      -7.829  16.888  57.418  0.00  0.00    +0.000 A 
ENDBRANCH   1  15
TORSDOF 2
ENDMDL
MODEL 5
REMARK VINA RESULT:       0.0     18.354     19.788
REMARK  Name = 
REMARK  2 active torsions:
REMARK  status: ('A' for Active; 'I' for Inactive)
REMARK    1  A    between atoms: C_5  and  C_6
REMARK    2  A    between atoms: C_7  and  C_8
REMARK                            x       y       z     vdW  Elec       q    Type
REMARK                         _______ _______ _______ _____ _____    ______ ____
ROOT
ATOM      1  C   UNL     1      18.888  18.458  64.531  0.00  0.00    +0.000 C 
ATOM      2  C   UNL     1      19.901  17.924  65.204  0.00  0.00    +0.000 C 
ENDROOT
BRANCH   2   3
ATOM      3  C   UNL     1      20.103  18.461  66.557  0.00  0.00    +0.000 A 
ATOM      4  C   UNL     1      20.347  17.503  67.535  0.00  0.00    +0.000 A 
ATOM      5  C   UNL     1      21.088  17.740  68.661  0.00  0.00    +0.000 A 
ATOM      6  O   UNL     1      21.225  16.742  69.629  0.00  0.00    +0.000 OA
ATOM      7  C   UNL     1      21.782  18.915  68.766  0.00  0.00    +0.000 A 
ATOM      8  C   UNL     1      21.670  19.873  67.764  0.00  0.00    +0.000 A 
ATOM      9  O   UNL     1      22.703  20.815  67.734  0.00  0.00    +0.000 OA
ATOM     10  C   UNL     1      20.855  19.625  66.678  0.00  0.00    +0.000 A 
ENDBRANCH   2   3
BRANCH   1  15
ATOM     11  O   UNL     1      15.322  18.039  68.686  0.00  0.00    +0.000 OA
ATOM     12  C   UNL     1      16.102  18.119  67.547  0.00  0.00    +0.000 A 
ATOM     13  C   UNL     1      16.221  19.375  66.967  0.00  0.00    +0.000 A 
ATOM     14  C   UNL     1      17.067  19.513  65.880  0.00  0.00    +0.000 A 
ATOM     15  C   UNL     1      17.596  18.449  65.200  0.00  0.00    +0.000 A 
ATOM     16  C   UNL     1      17.124  17.195  65.580  0.00  0.00    +0.000 A 
ATOM     17  C   UNL     1      16.303  17.043  66.691  0.00  0.00    +0.000 A 
ENDBRANCH   1  15
TORSDOF 2
ENDMDL
MODEL 6
REMARK VINA RESULT:       0.0     26.900     29.265
REMARK  Name = 
REMARK  2 active torsions:
REMARK  status: ('A' for Active; 'I' for Inactive)
REMARK    1  A    between atoms: C_5  and  C_6
REMARK    2  A    between atoms: C_7  and  C_8
REMARK                            x       y       z     vdW  Elec       q    Type
REMARK                         _______ _______ _______ _____ _____    ______ ____
ROOT
ATOM      1  C   UNL     1      -9.012  32.921  60.226  0.00  0.00    +0.000 C 
ATOM      2  C   UNL     1      -8.092  32.603  59.321  0.00  0.00    +0.000 C 
ENDROOT
BRANCH   2   3
ATOM      3  C   UNL     1      -7.333  31.378  59.608  0.00  0.00    +0.000 A 
ATOM      4  C   UNL     1      -7.155  30.533  58.518  0.00  0.00    +0.000 A 
ATOM      5  C   UNL     1      -6.082  29.695  58.375  0.00  0.00    +0.000 A 
ATOM      6  O   UNL     1      -6.017  28.826  57.283  0.00  0.00    +0.000 OA
ATOM      7  C   UNL     1      -5.031  29.805  59.245  0.00  0.00    +0.000 A 
ATOM      8  C   UNL     1      -5.098  30.713  60.295  0.00  0.00    +0.000 A 
ATOM      9  O   UNL     1      -3.863  31.059  60.852  0.00  0.00    +0.000 OA
ATOM     10  C   UNL     1      -6.229  31.490  60.447  0.00  0.00    +0.000 A 
ENDBRANCH   2   3
BRANCH   1  15
ATOM     11  O   UNL     1     -11.124  27.860  60.506  0.00  0.00    +0.000 OA
ATOM     12  C   UNL     1     -10.734  29.186  60.459  0.00  0.00    +0.000 A 
ATOM     13  C   UNL     1     -10.369  29.765  61.669  0.00  0.00    +0.000 A 
ATOM     14  C   UNL     1      -9.885  31.060  61.649  0.00  0.00    +0.000 A 
ATOM     15  C   UNL     1      -9.974  31.880  60.556  0.00  0.00    +0.000 A 
ATOM     16  C   UNL     1     -10.711  31.380  59.486  0.00  0.00    +0.000 A 
ATOM     17  C   UNL     1     -11.172  30.068  59.481  0.00  0.00    +0.000 A 
ENDBRANCH   1  15
TORSDOF 2
ENDMDL
MODEL 7
REMARK VINA RESULT:       0.0      8.134     10.398
REMARK  Name = 
REMARK  2 active torsions:
REMARK  status: ('A' for Active; 'I' for Inactive)
REMARK    1  A    between atoms: C_5  and  C_6
REMARK    2  A    between atoms: C_7  and  C_8
REMARK                            x       y       z     vdW  Elec       q    Type
REMARK                         _______ _______ _______ _____ _____    ______ ____
ROOT
ATOM      1  C   UNL     1       6.822   7.123  49.667  0.00  0.00    +0.000 C 
ATOM      2  C   UNL     1       7.719   6.421  48.982  0.00  0.00    +0.000 C 
ENDROOT
BRANCH   2   3
ATOM      3  C   UNL     1       8.501   5.466  49.778  0.00  0.00    +0.000 A 
ATOM      4  C   UNL     1       8.657   4.212  49.197  0.00  0.00    +0.000 A 
ATOM      5  C   UNL     1       9.735   3.399  49.423  0.00  0.00    +0.000 A 
ATOM      6  O   UNL     1       9.778   2.123  48.856  0.00  0.00    +0.000 OA
ATOM      7  C   UNL     1      10.811   3.896  50.108  0.00  0.00    +0.000 A 
ATOM      8  C   UNL     1      10.764   5.187  50.621  0.00  0.00    +0.000 A 
ATOM      9  O   UNL     1      12.011   5.748  50.913  0.00  0.00    +0.000 OA
ATOM     10  C   UNL     1       9.629   5.950  50.433  0.00  0.00    +0.000 A 
ENDBRANCH   2   3
BRANCH   1  15
ATOM     11  O   UNL     1       4.784   2.773  52.327  0.00  0.00    +0.000 OA
ATOM     12  C   UNL     1       5.156   3.926  51.659  0.00  0.00    +0.000 A 
ATOM     13  C   UNL     1       5.550   4.997  52.450  0.00  0.00    +0.000 A 
ATOM     14  C   UNL     1       6.017   6.135  51.818  0.00  0.00    +0.000 A 
ATOM     15  C   UNL     1       5.885   6.356  50.473  0.00  0.00    +0.000 A 
ATOM     16  C   UNL     1       5.122   5.420  49.781  0.00  0.00    +0.000 A 
ATOM     17  C   UNL     1       4.678   4.256  50.398  0.00  0.00    +0.000 A 
ENDBRANCH   1  15
TORSDOF 2
ENDMDL
MODEL 8
REMARK VINA RESULT:       0.0     15.156     16.832
REMARK  Name = 
REMARK  2 active torsions:
REMARK  status: ('A' for Active; 'I' for Inactive)
REMARK    1  A    between atoms: C_5  and  C_6
REMARK    2  A    between atoms: C_7  and  C_8
REMARK                            x       y       z     vdW  Elec       q    Type
REMARK                         _______ _______ _______ _____ _____    ______ ____
ROOT
ATOM      1  C   UNL     1       9.831  21.095  64.094  0.00  0.00    +0.000 C 
ATOM      2  C   UNL     1      10.397  19.904  63.926  0.00  0.00    +0.000 C 
ENDROOT
BRANCH   2   3
ATOM      3  C   UNL     1      11.635  19.690  64.687  0.00  0.00    +0.000 A 
ATOM      4  C   UNL     1      11.727  18.454  65.316  0.00  0.00    +0.000 A 
ATOM      5  C   UNL     1      12.912  17.819  65.574  0.00  0.00    +0.000 A 
ATOM      6  O   UNL     1      12.918  16.611  66.276  0.00  0.00    +0.000 OA
ATOM      7  C   UNL     1      14.067  18.321  65.036  0.00  0.00    +0.000 A 
ATOM      8  C   UNL     1      14.027  19.499  64.299  0.00  0.00    +0.000 A 
ATOM      9  O   UNL     1      15.124  19.699  63.455  0.00  0.00    +0.000 OA
ATOM     10  C   UNL     1      12.822  20.147  64.122  0.00  0.00    +0.000 A 
ENDBRANCH   2   3
BRANCH   1  15
ATOM     11  O   UNL     1      10.228  21.006  69.570  0.00  0.00    +0.000 OA
ATOM     12  C   UNL     1       9.998  21.105  68.210  0.00  0.00    +0.000 A 
ATOM     13  C   UNL     1      10.512  22.230  67.577  0.00  0.00    +0.000 A 
ATOM     14  C   UNL     1      10.382  22.319  66.203  0.00  0.00    +0.000 A 
ATOM     15  C   UNL     1       9.573  21.495  65.469  0.00  0.00    +0.000 A 
ATOM     16  C   UNL     1       8.766  20.631  66.205  0.00  0.00    +0.000 A 
ATOM     17  C   UNL     1       8.912  20.509  67.582  0.00  0.00    +0.000 A 
ENDBRANCH   1  15
TORSDOF 2
ENDMDL
MODEL 9
REMARK VINA RESULT:       0.0     30.727     32.523
REMARK  Name = 
REMARK  2 active torsions:
REMARK  status: ('A' for Active; 'I' for Inactive)
REMARK    1  A    between atoms: C_5  and  C_6
REMARK    2  A    between atoms: C_7  and  C_8
REMARK                            x       y       z     vdW  Elec       q    Type
REMARK                         _______ _______ _______ _____ _____    ______ ____
ROOT
ATOM      1  C   UNL     1       9.056  25.808  84.664  0.00  0.00    +0.000 C 
ATOM      2  C   UNL     1       9.448  27.016  84.270  0.00  0.00    +0.000 C 
ENDROOT
BRANCH   2   3
ATOM      3  C   UNL     1      10.883  27.288  84.432  0.00  0.00    +0.000 A 
ATOM      4  C   UNL     1      11.484  27.912  83.345  0.00  0.00    +0.000 A 
ATOM      5  C   UNL     1      12.570  28.739  83.450  0.00  0.00    +0.000 A 
ATOM      6  O   UNL     1      13.158  29.269  82.298  0.00  0.00    +0.000 OA
ATOM      7  C   UNL     1      12.992  29.129  84.692  0.00  0.00    +0.000 A 
ATOM      8  C   UNL     1      12.359  28.627  85.823  0.00  0.00    +0.000 A 
ATOM      9  O   UNL     1      12.555  29.377  86.987  0.00  0.00    +0.000 OA
ATOM     10  C   UNL     1      11.313  27.738  85.676  0.00  0.00    +0.000 A 
ENDBRANCH   2   3
BRANCH   1  15
ATOM     11  O   UNL     1      13.111  23.157  82.080  0.00  0.00    +0.000 OA
ATOM     12  C   UNL     1      12.002  23.704  82.700  0.00  0.00    +0.000 A 
ATOM     13  C   UNL     1      11.845  23.415  84.050  0.00  0.00    +0.000 A 
ATOM     14  C   UNL     1      10.800  24.019  84.727  0.00  0.00    +0.000 A 
ATOM     15  C   UNL     1       9.780  24.681  84.098  0.00  0.00    +0.000 A 
ATOM     16  C   UNL     1       9.775  24.600  82.708  0.00  0.00    +0.000 A 
ATOM     17  C   UNL     1      10.837  24.027  82.018  0.00  0.00    +0.000 A 
ENDBRANCH   1  15
TORSDOF 2
ENDMDL
MODEL 10
REMARK VINA RESULT:       0.0     28.443     29.773
REMARK  Name = 
REMARK  2 active torsions:
REMARK  status: ('A' for Active; 'I' for Inactive)
REMARK    1  A    between atoms: C_5  and  C_6
REMARK    2  A    between atoms: C_7  and  C_8
REMARK                            x       y       z     vdW  Elec       q    Type
REMARK                         _______ _______ _______ _____ _____    ______ ____
ROOT
ATOM      1  C   UNL     1      23.694  31.957  66.493  0.00  0.00    +0.000 C 
ATOM      2  C   UNL     1      22.390  32.161  66.656  0.00  0.00    +0.000 C 
ENDROOT
BRANCH   2   3
ATOM      3  C   UNL     1      21.519  31.275  65.872  0.00  0.00    +0.000 A 
ATOM      4  C   UNL     1      20.437  30.753  66.571  0.00  0.00    +0.000 A 
ATOM      5  C   UNL     1      19.249  30.408  65.985  0.00  0.00    +0.000 A 
ATOM      6  O   UNL     1      18.237  29.823  66.750  0.00  0.00    +0.000 OA
ATOM      7  C   UNL     1      19.027  30.752  64.678  0.00  0.00    +0.000 A 
ATOM      8  C   UNL     1      20.033  31.379  63.952  0.00  0.00    +0.000 A 
ATOM      9  O   UNL     1      19.595  32.059  62.810  0.00  0.00    +0.000 OA
ATOM     10  C   UNL     1      21.243  31.645  64.559  0.00  0.00    +0.000 A 
ENDBRANCH   2   3
BRANCH   1  15
ATOM     11  O   UNL     1      23.366  26.505  67.055  0.00  0.00    +0.000 OA
ATOM     12  C   UNL     1      23.584  27.869  66.982  0.00  0.00    +0.000 A 
ATOM     13  C   UNL     1      24.237  28.329  65.845  0.00  0.00    +0.000 A 
ATOM     14  C   UNL     1      24.392  29.695  65.692  0.00  0.00    +0.000 A 
ATOM     15  C   UNL     1      24.161  30.595  66.698  0.00  0.00    +0.000 A 
ATOM     16  C   UNL     1      23.887  30.046  67.947  0.00  0.00    +0.000 A 
ATOM     17  C   UNL     1      23.696  28.678  68.105  0.00  0.00    +0.000 A 
ENDBRANCH   1  15
TORSDOF 2
ENDMDL
