REMARK  Name = 
REMARK  3 active torsions:
REMARK  status: ('A' for Active; 'I' for Inactive)
REMARK    1  A    between atoms: O_2  and  C_3
REMARK    2  A    between atoms: C_6  and  C_7
REMARK    3  A    between atoms: C_8  and  C_9
REMARK                            x       y       z     vdW  Elec       q    Type
REMARK                         _______ _______ _______ _____ _____    ______ ____
ROOT
ATOM      1  C   UNL     1      -0.183  -1.897   1.102  0.00  0.00    +0.000 C 
ATOM      2  C   UNL     1      -1.268  -1.225   1.491  0.00  0.00    +0.000 C 
ENDROOT
BRANCH   2   3
ATOM      3  C   UNL     1      -1.838  -0.349   0.460  0.00  0.00    +0.000 A 
ATOM      4  C   UNL     1      -2.956  -0.856  -0.193  0.00  0.00    +0.000 A 
ATOM      5  C   UNL     1      -3.845  -0.051  -0.873  0.00  0.00    +0.000 A 
ATOM      6  O   UNL     1      -4.666  -0.702  -1.800  0.00  0.00    +0.000 OA
ATOM      7  C   UNL     1      -3.700   1.310  -0.853  0.00  0.00    +0.000 A 
ATOM      8  C   UNL     1      -2.686   1.856  -0.084  0.00  0.00    +0.000 A 
ATOM      9  O   UNL     1      -2.376   3.193  -0.252  0.00  0.00    +0.000 OA
ATOM     10  C   UNL     1      -1.782   1.033   0.562  0.00  0.00    +0.000 A 
ENDBRANCH   2   3
BRANCH   1  14
ATOM     11  C   UNL     1       3.450  -0.214  -0.156  0.00  0.00    +0.000 A 
ATOM     12  C   UNL     1       3.260  -0.705   1.110  0.00  0.00    +0.000 A 
ATOM     13  C   UNL     1       1.940  -0.827   1.528  0.00  0.00    +0.000 A 
ATOM     14  C   UNL     1       0.916  -1.053   0.615  0.00  0.00    +0.000 A 
ATOM     15  C   UNL     1       1.226  -0.964  -0.736  0.00  0.00    +0.000 A 
ATOM     16  C   UNL     1       2.488  -0.530  -1.106  0.00  0.00    +0.000 A 
ATOM     17  O   UNL     1       2.787  -0.133  -2.412  0.00  0.00    +0.000 OA
BRANCH  11  19
ATOM     18  C   UNL     1       4.574   1.736  -0.952  0.00  0.00    +0.000 C 
ATOM     19  O   UNL     1       4.660   0.381  -0.525  0.00  0.00    +0.000 OA
ENDBRANCH  11  19
ENDBRANCH   1  14
TORSDOF 3
