REMARK  Name = 
REMARK  4 active torsions:
REMARK  status: ('A' for Active; 'I' for Inactive)
REMARK    1  A    between atoms: O_2  and  C_3
REMARK    2  A    between atoms: C_6  and  C_7
REMARK    3  A    between atoms: C_8  and  C_9
REMARK    4  A    between atoms: C_18  and  O_19
REMARK                            x       y       z     vdW  Elec       q    Type
REMARK                         _______ _______ _______ _____ _____    ______ ____
ROOT
ATOM      1  C   UNL     1      -3.458  -0.423  -0.491  0.00  0.00    +0.000 A 
ATOM      2  C   UNL     1      -2.999  -1.669  -0.104  0.00  0.00    +0.000 A 
ATOM      3  C   UNL     1      -1.750  -1.810   0.490  0.00  0.00    +0.000 A 
ATOM      4  C   UNL     1      -0.817  -0.780   0.440  0.00  0.00    +0.000 A 
ATOM      5  C   UNL     1      -1.241   0.371  -0.198  0.00  0.00    +0.000 A 
ATOM      6  C   UNL     1      -2.500   0.549  -0.701  0.00  0.00    +0.000 A 
ENDROOT
BRANCH   1   8
ATOM      7  C   UNL     1      -5.142   0.505   0.974  0.00  0.00    +0.000 C 
ATOM      8  O   UNL     1      -4.786  -0.025  -0.302  0.00  0.00    +0.000 OA
ENDBRANCH   1   8
BRANCH   4   9
ATOM      9  C   UNL     1       0.072  -0.699   1.609  0.00  0.00    +0.000 C 
ATOM     10  C   UNL     1       1.246  -1.308   1.431  0.00  0.00    +0.000 C 
BRANCH  10  11
ATOM     11  C   UNL     1       2.032  -0.803   0.296  0.00  0.00    +0.000 A 
ATOM     12  C   UNL     1       3.279  -1.401   0.145  0.00  0.00    +0.000 A 
ATOM     13  C   UNL     1       4.364  -0.731  -0.380  0.00  0.00    +0.000 A 
ATOM     14  O   UNL     1       5.569  -1.325  -0.689  0.00  0.00    +0.000 OA
ATOM     15  C   UNL     1       4.299   0.645  -0.553  0.00  0.00    +0.000 A 
ATOM     16  C   UNL     1       3.103   1.278  -0.368  0.00  0.00    +0.000 A 
ATOM     17  O   UNL     1       3.075   2.672  -0.419  0.00  0.00    +0.000 OA
ATOM     18  C   UNL     1       2.015   0.562   0.038  0.00  0.00    +0.000 A 
ENDBRANCH  10  11
ENDBRANCH   4   9
BRANCH   6  19
ATOM     19  O   UNL     1      -2.835   1.629  -1.522  0.00  0.00    +0.000 OA
ATOM     20  C   UNL     1      -3.527   2.762  -1.070  0.00  0.00    +0.000 C 
ENDBRANCH   6  19
TORSDOF 4
