MODEL 1
REMARK VINA RESULT:      -0.0      0.000      0.000
REMARK  Name = 
REMARK  4 active torsions:
REMARK  status: ('A' for Active; 'I' for Inactive)
REMARK    1  A    between atoms: O_2  and  C_3
REMARK    2  A    between atoms: C_6  and  C_7
REMARK    3  A    between atoms: C_8  and  C_9
REMARK    4  A    between atoms: C_18  and  O_19
REMARK                            x       y       z     vdW  Elec       q    Type
REMARK                         _______ _______ _______ _____ _____    ______ ____
ROOT
ATOM      1  C   UNL     1      16.420  13.614  49.837  0.00  0.00    +0.000 A 
ATOM      2  C   UNL     1      17.352  14.630  49.721  0.00  0.00    +0.000 A 
ATOM      3  C   UNL     1      16.965  15.901  49.312  0.00  0.00    +0.000 A 
ATOM      4  C   UNL     1      15.721  16.114  48.728  0.00  0.00    +0.000 A 
ATOM      5  C   UNL     1      14.915  14.995  48.629  0.00  0.00    +0.000 A 
ATOM      6  C   UNL     1      15.253  13.762  49.115  0.00  0.00    +0.000 A 
ENDROOT
BRANCH   1   8
ATOM      7  C   UNL     1      15.821  13.094  52.121  0.00  0.00    +0.000 C 
ATOM      8  O   UNL     1      16.441  12.701  50.897  0.00  0.00    +0.000 OA
ENDBRANCH   1   8
BRANCH   4   9
ATOM      9  C   UNL     1      15.132  17.434  49.002  0.00  0.00    +0.000 C 
ATOM     10  C   UNL     1      15.631  18.410  48.241  0.00  0.00    +0.000 C 
BRANCH  10  11
ATOM     11  C   UNL     1      15.479  18.198  46.795  0.00  0.00    +0.000 A 
ATOM     12  C   UNL     1      16.572  18.599  46.033  0.00  0.00    +0.000 A 
ATOM     13  C   UNL     1      16.445  19.068  44.743  0.00  0.00    +0.000 A 
ATOM     14  O   UNL     1      17.506  19.329  43.903  0.00  0.00    +0.000 OA
ATOM     15  C   UNL     1      15.184  19.376  44.249  0.00  0.00    +0.000 A 
ATOM     16  C   UNL     1      14.086  19.041  44.987  0.00  0.00    +0.000 A 
ATOM     17  O   UNL     1      12.833  19.468  44.545  0.00  0.00    +0.000 OA
ATOM     18  C   UNL     1      14.245  18.467  46.215  0.00  0.00    +0.000 A 
ENDBRANCH  10  11
ENDBRANCH   4   9
BRANCH   6  19
ATOM     19  O   UNL     1      14.520  12.611  48.815  0.00  0.00    +0.000 OA
ATOM     20  C   UNL     1      13.230  12.362  49.306  0.00  0.00    +0.000 C 
ENDBRANCH   6  19
TORSDOF 4
ENDMDL
MODEL 2
REMARK VINA RESULT:       0.0      9.091     11.575
REMARK  Name = 
REMARK  4 active torsions:
REMARK  status: ('A' for Active; 'I' for Inactive)
REMARK    1  A    between atoms: O_2  and  C_3
REMARK    2  A    between atoms: C_6  and  C_7
REMARK    3  A    between atoms: C_8  and  C_9
REMARK    4  A    between atoms: C_18  and  O_19
REMARK                            x       y       z     vdW  Elec       q    Type
REMARK                         _______ _______ _______ _____ _____    ______ ____
ROOT
ATOM      1  C   UNL     1      10.994  18.272  59.583  0.00  0.00    +0.000 A 
ATOM      2  C   UNL     1      11.556  17.008  59.545  0.00  0.00    +0.000 A 
ATOM      3  C   UNL     1      11.735  16.349  58.334  0.00  0.00    +0.000 A 
ATOM      4  C   UNL     1      11.097  16.792  57.181  0.00  0.00    +0.000 A 
ATOM      5  C   UNL     1      10.325  17.929  57.332  0.00  0.00    +0.000 A 
ATOM      6  C   UNL     1      10.220  18.635  58.499  0.00  0.00    +0.000 A 
ENDROOT
BRANCH   1   8
ATOM      7  C   UNL     1      12.591  20.042  59.983  0.00  0.00    +0.000 C 
ATOM      8  O   UNL     1      11.473  19.276  60.431  0.00  0.00    +0.000 OA
ENDBRANCH   1   8
BRANCH   4   9
ATOM      9  C   UNL     1      11.847  16.562  55.936  0.00  0.00    +0.000 C 
ATOM     10  C   UNL     1      11.753  15.311  55.480  0.00  0.00    +0.000 C 
BRANCH  10  11
ATOM     11  C   UNL     1      10.380  14.860  55.208  0.00  0.00    +0.000 A 
ATOM     12  C   UNL     1      10.126  13.538  55.559  0.00  0.00    +0.000 A 
ATOM     13  C   UNL     1       9.216  12.753  54.883  0.00  0.00    +0.000 A 
ATOM     14  O   UNL     1       8.822  11.496  55.289  0.00  0.00    +0.000 OA
ATOM     15  C   UNL     1       8.698  13.196  53.673  0.00  0.00    +0.000 A 
ATOM     16  C   UNL     1       8.963  14.473  53.269  0.00  0.00    +0.000 A 
ATOM     17  O   UNL     1       8.547  14.866  51.997  0.00  0.00    +0.000 OA
ATOM     18  C   UNL     1       9.775  15.267  54.026  0.00  0.00    +0.000 A 
ENDBRANCH  10  11
ENDBRANCH   4   9
BRANCH   6  19
ATOM     19  O   UNL     1       9.275  19.648  58.681  0.00  0.00    +0.000 OA
ATOM     20  C   UNL     1       9.333  20.889  58.032  0.00  0.00    +0.000 C 
ENDBRANCH   6  19
TORSDOF 4
ENDMDL
MODEL 3
REMARK VINA RESULT:       0.0     22.809     24.513
REMARK  Name = 
REMARK  4 active torsions:
REMARK  status: ('A' for Active; 'I' for Inactive)
REMARK    1  A    between atoms: O_2  and  C_3
REMARK    2  A    between atoms: C_6  and  C_7
REMARK    3  A    between atoms: C_8  and  C_9
REMARK    4  A    between atoms: C_18  and  O_19
REMARK                            x       y       z     vdW  Elec       q    Type
REMARK                         _______ _______ _______ _____ _____    ______ ____
ROOT
ATOM      1  C   UNL     1      17.038  27.320  67.426  0.00  0.00    +0.000 A 
ATOM      2  C   UNL     1      15.930  28.081  67.100  0.00  0.00    +0.000 A 
ATOM      3  C   UNL     1      14.861  28.188  67.982  0.00  0.00    +0.000 A 
ATOM      4  C   UNL     1      14.735  27.317  69.059  0.00  0.00    +0.000 A 
ATOM      5  C   UNL     1      15.753  26.391  69.191  0.00  0.00    +0.000 A 
ATOM      6  C   UNL     1      16.855  26.341  68.382  0.00  0.00    +0.000 A 
ENDROOT
BRANCH   1   8
ATOM      7  C   UNL     1      18.969  28.629  68.061  0.00  0.00    +0.000 C 
ATOM      8  O   UNL     1      18.342  27.740  67.138  0.00  0.00    +0.000 OA
ENDBRANCH   1   8
BRANCH   4   9
ATOM      9  C   UNL     1      14.099  27.900  70.250  0.00  0.00    +0.000 C 
ATOM     10  C   UNL     1      12.768  27.952  70.173  0.00  0.00    +0.000 C 
BRANCH  10  11
ATOM     11  C   UNL     1      12.114  26.652  69.968  0.00  0.00    +0.000 A 
ATOM     12  C   UNL     1      11.028  26.682  69.100  0.00  0.00    +0.000 A 
ATOM     13  C   UNL     1       9.952  25.828  69.228  0.00  0.00    +0.000 A 
ATOM     14  O   UNL     1       8.932  25.719  68.307  0.00  0.00    +0.000 OA
ATOM     15  C   UNL     1       9.818  25.068  70.382  0.00  0.00    +0.000 A 
ATOM     16  C   UNL     1      10.843  25.048  71.284  0.00  0.00    +0.000 A 
ATOM     17  O   UNL     1      10.649  24.385  72.496  0.00  0.00    +0.000 OA
ATOM     18  C   UNL     1      11.949  25.816  71.066  0.00  0.00    +0.000 A 
ENDBRANCH  10  11
ENDBRANCH   4   9
BRANCH   6  19
ATOM     19  O   UNL     1      17.755  25.273  68.404  0.00  0.00    +0.000 OA
ATOM     20  C   UNL     1      18.634  25.020  69.467  0.00  0.00    +0.000 C 
ENDBRANCH   6  19
TORSDOF 4
ENDMDL
MODEL 4
REMARK VINA RESULT:       0.0     27.784     29.295
REMARK  Name = 
REMARK  4 active torsions:
REMARK  status: ('A' for Active; 'I' for Inactive)
REMARK    1  A    between atoms: O_2  and  C_3
REMARK    2  A    between atoms: C_6  and  C_7
REMARK    3  A    between atoms: C_8  and  C_9
REMARK    4  A    between atoms: C_18  and  O_19
REMARK                            x       y       z     vdW  Elec       q    Type
REMARK                         _______ _______ _______ _____ _____    ______ ____
ROOT
ATOM      1  C   UNL     1       7.598   9.052  74.222  0.00  0.00    +0.000 A 
ATOM      2  C   UNL     1       7.852  10.185  73.470  0.00  0.00    +0.000 A 
ATOM      3  C   UNL     1       8.976  10.964  73.720  0.00  0.00    +0.000 A 
ATOM      4  C   UNL     1       9.700  10.811  74.897  0.00  0.00    +0.000 A 
ATOM      5  C   UNL     1       9.241   9.824  75.750  0.00  0.00    +0.000 A 
ATOM      6  C   UNL     1       8.194   8.992  75.466  0.00  0.00    +0.000 A 
ENDROOT
BRANCH   1   8
ATOM      7  C   UNL     1       8.076   6.983  73.067  0.00  0.00    +0.000 C 
ATOM      8  O   UNL     1       7.120   7.868  73.650  0.00  0.00    +0.000 OA
ENDBRANCH   1   8
BRANCH   4   9
ATOM      9  C   UNL     1      11.142  11.074  74.770  0.00  0.00    +0.000 C 
ATOM     10  C   UNL     1      11.451  12.372  74.778  0.00  0.00    +0.000 C 
BRANCH  10  11
ATOM     11  C   UNL     1      11.018  13.097  75.981  0.00  0.00    +0.000 A 
ATOM     12  C   UNL     1      10.538  14.381  75.741  0.00  0.00    +0.000 A 
ATOM     13  C   UNL     1      10.667  15.404  76.656  0.00  0.00    +0.000 A 
ATOM     14  O   UNL     1      10.075  16.642  76.527  0.00  0.00    +0.000 OA
ATOM     15  C   UNL     1      11.499  15.237  77.755  0.00  0.00    +0.000 A 
ATOM     16  C   UNL     1      12.030  14.002  78.000  0.00  0.00    +0.000 A 
ATOM     17  O   UNL     1      12.963  13.873  79.029  0.00  0.00    +0.000 OA
ATOM     18  C   UNL     1      11.783  12.977  77.135  0.00  0.00    +0.000 A 
ENDBRANCH  10  11
ENDBRANCH   4   9
BRANCH   6  19
ATOM     19  O   UNL     1       7.620   8.153  76.424  0.00  0.00    +0.000 OA
ATOM     20  C   UNL     1       8.263   7.023  76.951  0.00  0.00    +0.000 C 
ENDBRANCH   6  19
TORSDOF 4
ENDMDL
MODEL 5
REMARK VINA RESULT:       0.0     32.990     36.781
REMARK  Name = 
REMARK  4 active torsions:
REMARK  status: ('A' for Active; 'I' for Inactive)
REMARK    1  A    between atoms: O_2  and  C_3
REMARK    2  A    between atoms: C_6  and  C_7
REMARK    3  A    between atoms: C_8  and  C_9
REMARK    4  A    between atoms: C_18  and  O_19
REMARK                            x       y       z     vdW  Elec       q    Type
REMARK                         _______ _______ _______ _____ _____    ______ ____
ROOT
ATOM      1  C   UNL     1      -3.229  15.164  75.979  0.00  0.00    +0.000 A 
ATOM      2  C   UNL     1      -3.011  15.968  77.082  0.00  0.00    +0.000 A 
ATOM      3  C   UNL     1      -2.298  15.491  78.176  0.00  0.00    +0.000 A 
ATOM      4  C   UNL     1      -2.049  14.131  78.326  0.00  0.00    +0.000 A 
ATOM      5  C   UNL     1      -2.525  13.327  77.307  0.00  0.00    +0.000 A 
ATOM      6  C   UNL     1      -3.144  13.801  76.183  0.00  0.00    +0.000 A 
ENDROOT
BRANCH   1   8
ATOM      7  C   UNL     1      -1.848  15.719  74.074  0.00  0.00    +0.000 C 
ATOM      8  O   UNL     1      -3.142  15.652  74.670  0.00  0.00    +0.000 OA
ENDBRANCH   1   8
BRANCH   4   9
ATOM      9  C   UNL     1      -0.782  13.809  78.999  0.00  0.00    +0.000 C 
ATOM     10  C   UNL     1      -0.837  13.923  80.327  0.00  0.00    +0.000 C 
BRANCH  10  11
ATOM     11  C   UNL     1      -1.856  13.082  80.972  0.00  0.00    +0.000 A 
ATOM     12  C   UNL     1      -2.518  13.688  82.035  0.00  0.00    +0.000 A 
ATOM     13  C   UNL     1      -3.002  12.975  83.111  0.00  0.00    +0.000 A 
ATOM     14  O   UNL     1      -3.794  13.509  84.105  0.00  0.00    +0.000 OA
ATOM     15  C   UNL     1      -2.628  11.648  83.276  0.00  0.00    +0.000 A 
ATOM     16  C   UNL     1      -1.935  11.029  82.275  0.00  0.00    +0.000 A 
ATOM     17  O   UNL     1      -1.453   9.739  82.501  0.00  0.00    +0.000 OA
ATOM     18  C   UNL     1      -1.573  11.735  81.165  0.00  0.00    +0.000 A 
ENDBRANCH  10  11
ENDBRANCH   4   9
BRANCH   6  19
ATOM     19  O   UNL     1      -3.799  12.963  75.277  0.00  0.00    +0.000 OA
ATOM     20  C   UNL     1      -3.135  12.061  74.433  0.00  0.00    +0.000 C 
ENDBRANCH   6  19
TORSDOF 4
ENDMDL
MODEL 6
REMARK VINA RESULT:       0.0     19.405     21.312
REMARK  Name = 
REMARK  4 active torsions:
REMARK  status: ('A' for Active; 'I' for Inactive)
REMARK    1  A    between atoms: O_2  and  C_3
REMARK    2  A    between atoms: C_6  and  C_7
REMARK    3  A    between atoms: C_8  and  C_9
REMARK    4  A    between atoms: C_18  and  O_19
REMARK                            x       y       z     vdW  Elec       q    Type
REMARK                         _______ _______ _______ _____ _____    ______ ____
ROOT
ATOM      1  C   UNL     1       5.669  30.224  53.890  0.00  0.00    +0.000 A 
ATOM      2  C   UNL     1       5.383  31.000  54.999  0.00  0.00    +0.000 A 
ATOM      3  C   UNL     1       4.550  32.107  54.892  0.00  0.00    +0.000 A 
ATOM      4  C   UNL     1       4.228  32.639  53.648  0.00  0.00    +0.000 A 
ATOM      5  C   UNL     1       4.762  31.969  52.563  0.00  0.00    +0.000 A 
ATOM      6  C   UNL     1       5.505  30.825  52.658  0.00  0.00    +0.000 A 
ENDROOT
BRANCH   1   8
ATOM      7  C   UNL     1       4.501  28.108  53.848  0.00  0.00    +0.000 C 
ATOM      8  O   UNL     1       5.729  28.827  53.952  0.00  0.00    +0.000 OA
ENDBRANCH   1   8
BRANCH   4   9
ATOM      9  C   UNL     1       2.889  33.242  53.565  0.00  0.00    +0.000 C 
ATOM     10  C   UNL     1       2.824  34.471  54.083  0.00  0.00    +0.000 C 
BRANCH  10  11
ATOM     11  C   UNL     1       3.739  35.444  53.468  0.00  0.00    +0.000 A 
ATOM     12  C   UNL     1       4.322  36.334  54.364  0.00  0.00    +0.000 A 
ATOM     13  C   UNL     1       4.670  37.620  54.010  0.00  0.00    +0.000 A 
ATOM     14  O   UNL     1       5.386  38.481  54.815  0.00  0.00    +0.000 OA
ATOM     15  C   UNL     1       4.223  38.142  52.803  0.00  0.00    +0.000 A 
ATOM     16  C   UNL     1       3.602  37.311  51.915  0.00  0.00    +0.000 A 
ATOM     17  O   UNL     1       3.045  37.868  50.763  0.00  0.00    +0.000 OA
ATOM     18  C   UNL     1       3.380  36.007  52.250  0.00  0.00    +0.000 A 
ENDBRANCH  10  11
ENDBRANCH   4   9
BRANCH   6  19
ATOM     19  O   UNL     1       6.205  30.292  51.573  0.00  0.00    +0.000 OA
ATOM     20  C   UNL     1       5.584  29.697  50.465  0.00  0.00    +0.000 C 
ENDBRANCH   6  19
TORSDOF 4
ENDMDL
MODEL 7
REMARK VINA RESULT:       0.0     29.527     30.874
REMARK  Name = 
REMARK  4 active torsions:
REMARK  status: ('A' for Active; 'I' for Inactive)
REMARK    1  A    between atoms: O_2  and  C_3
REMARK    2  A    between atoms: C_6  and  C_7
REMARK    3  A    between atoms: C_8  and  C_9
REMARK    4  A    between atoms: C_18  and  O_19
REMARK                            x       y       z     vdW  Elec       q    Type
REMARK                         _______ _______ _______ _____ _____    ______ ____
ROOT
ATOM      1  C   UNL     1      -9.169  27.048  68.398  0.00  0.00    +0.000 A 
ATOM      2  C   UNL     1      -7.987  26.537  68.900  0.00  0.00    +0.000 A 
ATOM      3  C   UNL     1      -6.769  26.863  68.314  0.00  0.00    +0.000 A 
ATOM      4  C   UNL     1      -6.719  27.451  67.055  0.00  0.00    +0.000 A 
ATOM      5  C   UNL     1      -7.947  27.708  66.473  0.00  0.00    +0.000 A 
ATOM      6  C   UNL     1      -9.148  27.475  67.085  0.00  0.00    +0.000 A 
ENDROOT
BRANCH   1   8
ATOM      7  C   UNL     1     -10.118  28.820  69.741  0.00  0.00    +0.000 C 
ATOM      8  O   UNL     1     -10.204  27.491  69.229  0.00  0.00    +0.000 OA
ENDBRANCH   1   8
BRANCH   4   9
ATOM      9  C   UNL     1      -5.591  28.373  66.851  0.00  0.00    +0.000 C 
ATOM     10  C   UNL     1      -4.438  27.757  66.584  0.00  0.00    +0.000 C 
BRANCH  10  11
ATOM     11  C   UNL     1      -4.467  26.893  65.395  0.00  0.00    +0.000 A 
ATOM     12  C   UNL     1      -3.755  25.705  65.527  0.00  0.00    +0.000 A 
ATOM     13  C   UNL     1      -3.140  25.086  64.459  0.00  0.00    +0.000 A 
ATOM     14  O   UNL     1      -2.559  23.838  64.513  0.00  0.00    +0.000 OA
ATOM     15  C   UNL     1      -3.015  25.767  63.255  0.00  0.00    +0.000 A 
ATOM     16  C   UNL     1      -3.660  26.961  63.101  0.00  0.00    +0.000 A 
ATOM     17  O   UNL     1      -3.427  27.696  61.939  0.00  0.00    +0.000 OA
ATOM     18  C   UNL     1      -4.362  27.489  64.145  0.00  0.00    +0.000 A 
ENDBRANCH  10  11
ENDBRANCH   4   9
BRANCH   6  19
ATOM     19  O   UNL     1     -10.364  27.543  66.401  0.00  0.00    +0.000 OA
ATOM     20  C   UNL     1     -10.927  28.740  65.934  0.00  0.00    +0.000 C 
ENDBRANCH   6  19
TORSDOF 4
ENDMDL
MODEL 8
REMARK VINA RESULT:       0.0     17.241     20.155
REMARK  Name = 
REMARK  4 active torsions:
REMARK  status: ('A' for Active; 'I' for Inactive)
REMARK    1  A    between atoms: O_2  and  C_3
REMARK    2  A    between atoms: C_6  and  C_7
REMARK    3  A    between atoms: C_8  and  C_9
REMARK    4  A    between atoms: C_18  and  O_19
REMARK                            x       y       z     vdW  Elec       q    Type
REMARK                         _______ _______ _______ _____ _____    ______ ____
ROOT
ATOM      1  C   UNL     1      15.949  17.917  70.126  0.00  0.00    +0.000 A 
ATOM      2  C   UNL     1      17.141  18.201  69.486  0.00  0.00    +0.000 A 
ATOM      3  C   UNL     1      17.348  17.810  68.168  0.00  0.00    +0.000 A 
ATOM      4  C   UNL     1      16.510  16.880  67.561  0.00  0.00    +0.000 A 
ATOM      5  C   UNL     1      15.468  16.424  68.346  0.00  0.00    +0.000 A 
ATOM      6  C   UNL     1      15.205  16.875  69.610  0.00  0.00    +0.000 A 
ENDROOT
BRANCH   1   8
ATOM      7  C   UNL     1      14.488  19.828  70.365  0.00  0.00    +0.000 C 
ATOM      8  O   UNL     1      15.317  18.837  70.970  0.00  0.00    +0.000 OA
ENDBRANCH   1   8
BRANCH   4   9
ATOM      9  C   UNL     1      16.325  17.072  66.115  0.00  0.00    +0.000 C 
ATOM     10  C   UNL     1      17.336  16.605  65.380  0.00  0.00    +0.000 C 
BRANCH  10  11
ATOM     11  C   UNL     1      17.613  15.172  65.560  0.00  0.00    +0.000 A 
ATOM     12  C   UNL     1      18.964  14.841  65.566  0.00  0.00    +0.000 A 
ATOM     13  C   UNL     1      19.433  13.627  65.111  0.00  0.00    +0.000 A 
ATOM     14  O   UNL     1      20.737  13.199  65.240  0.00  0.00    +0.000 OA
ATOM     15  C   UNL     1      18.581  12.787  64.407  0.00  0.00    +0.000 A 
ATOM     16  C   UNL     1      17.253  13.101  64.336  0.00  0.00    +0.000 A 
ATOM     17  O   UNL     1      16.429  12.322  63.523  0.00  0.00    +0.000 OA
ATOM     18  C   UNL     1      16.801  14.256  64.904  0.00  0.00    +0.000 A 
ENDBRANCH  10  11
ENDBRANCH   4   9
BRANCH   6  19
ATOM     19  O   UNL     1      14.284  16.250  70.454  0.00  0.00    +0.000 OA
ATOM     20  C   UNL     1      12.897  16.278  70.246  0.00  0.00    +0.000 C 
ENDBRANCH   6  19
TORSDOF 4
ENDMDL
MODEL 9
REMARK VINA RESULT:       0.0      3.945      6.950
REMARK  Name = 
REMARK  4 active torsions:
REMARK  status: ('A' for Active; 'I' for Inactive)
REMARK    1  A    between atoms: O_2  and  C_3
REMARK    2  A    between atoms: C_6  and  C_7
REMARK    3  A    between atoms: C_8  and  C_9
REMARK    4  A    between atoms: C_18  and  O_19
REMARK                            x       y       z     vdW  Elec       q    Type
REMARK                         _______ _______ _______ _____ _____    ______ ____
ROOT
ATOM      1  C   UNL     1      14.822  15.132  50.741  0.00  0.00    +0.000 A 
ATOM      2  C   UNL     1      14.225  13.949  51.137  0.00  0.00    +0.000 A 
ATOM      3  C   UNL     1      13.344  13.283  50.293  0.00  0.00    +0.000 A 
ATOM      4  C   UNL     1      12.810  13.919  49.177  0.00  0.00    +0.000 A 
ATOM      5  C   UNL     1      13.246  15.214  48.969  0.00  0.00    +0.000 A 
ATOM      6  C   UNL     1      14.184  15.840  49.742  0.00  0.00    +0.000 A 
ENDROOT
BRANCH   1   8
ATOM      7  C   UNL     1      17.146  14.897  50.116  0.00  0.00    +0.000 C 
ATOM      8  O   UNL     1      16.165  15.418  51.012  0.00  0.00    +0.000 OA
ENDBRANCH   1   8
BRANCH   4   9
ATOM      9  C   UNL     1      12.538  13.031  48.036  0.00  0.00    +0.000 C 
ATOM     10  C   UNL     1      11.405  12.338  48.155  0.00  0.00    +0.000 C 
BRANCH  10  11
ATOM     11  C   UNL     1      10.197  13.161  48.317  0.00  0.00    +0.000 A 
ATOM     12  C   UNL     1       9.265  12.649  49.214  0.00  0.00    +0.000 A 
ATOM     13  C   UNL     1       7.909  12.859  49.074  0.00  0.00    +0.000 A 
ATOM     14  O   UNL     1       6.967  12.505  50.016  0.00  0.00    +0.000 OA
ATOM     15  C   UNL     1       7.419  13.393  47.890  0.00  0.00    +0.000 A 
ATOM     16  C   UNL     1       8.303  13.863  46.962  0.00  0.00    +0.000 A 
ATOM     17  O   UNL     1       7.808  14.279  45.725  0.00  0.00    +0.000 OA
ATOM     18  C   UNL     1       9.644  13.748  47.186  0.00  0.00    +0.000 A 
ENDBRANCH  10  11
ENDBRANCH   4   9
BRANCH   6  19
ATOM     19  O   UNL     1      14.449  17.208  49.641  0.00  0.00    +0.000 OA
ATOM     20  C   UNL     1      15.088  17.795  48.539  0.00  0.00    +0.000 C 
ENDBRANCH   6  19
TORSDOF 4
ENDMDL
MODEL 10
REMARK VINA RESULT:       0.0     13.381     15.391
REMARK  Name = 
REMARK  4 active torsions:
REMARK  status: ('A' for Active; 'I' for Inactive)
REMARK    1  A    between atoms: O_2  and  C_3
REMARK    2  A    between atoms: C_6  and  C_7
REMARK    3  A    between atoms: C_8  and  C_9
REMARK    4  A    between atoms: C_18  and  O_19
REMARK                            x       y       z     vdW  Elec       q    Type
REMARK                         _______ _______ _______ _____ _____    ______ ____
ROOT
ATOM      1  C   UNL     1      13.815  27.649  58.742  0.00  0.00    +0.000 A 
ATOM      2  C   UNL     1      13.420  26.751  59.717  0.00  0.00    +0.000 A 
ATOM      3  C   UNL     1      12.754  25.581  59.374  0.00  0.00    +0.000 A 
ATOM      4  C   UNL     1      12.205  25.419  58.106  0.00  0.00    +0.000 A 
ATOM      5  C   UNL     1      12.406  26.475  57.236  0.00  0.00    +0.000 A 
ATOM      6  C   UNL     1      13.141  27.588  57.539  0.00  0.00    +0.000 A 
ENDROOT
BRANCH   1   8
ATOM      7  C   UNL     1      16.185  27.605  58.270  0.00  0.00    +0.000 C 
ATOM      8  O   UNL     1      15.052  28.302  58.785  0.00  0.00    +0.000 OA
ENDBRANCH   1   8
BRANCH   4   9
ATOM      9  C   UNL     1      12.203  24.035  57.609  0.00  0.00    +0.000 C 
ATOM     10  C   UNL     1      11.213  23.290  58.106  0.00  0.00    +0.000 C 
BRANCH  10  11
ATOM     11  C   UNL     1       9.864  23.811  57.842  0.00  0.00    +0.000 A 
ATOM     12  C   UNL     1       8.971  23.663  58.899  0.00  0.00    +0.000 A 
ATOM     13  C   UNL     1       7.616  23.489  58.706  0.00  0.00    +0.000 A 
ATOM     14  O   UNL     1       6.681  23.492  59.719  0.00  0.00    +0.000 OA
ATOM     15  C   UNL     1       7.137  23.216  57.432  0.00  0.00    +0.000 A 
ATOM     16  C   UNL     1       7.993  23.304  56.372  0.00  0.00    +0.000 A 
ATOM     17  O   UNL     1       7.536  22.905  55.115  0.00  0.00    +0.000 OA
ATOM     18  C   UNL     1       9.308  23.597  56.587  0.00  0.00    +0.000 A 
ENDBRANCH  10  11
ENDBRANCH   4   9
BRANCH   6  19
ATOM     19  O   UNL     1      13.151  28.725  56.726  0.00  0.00    +0.000 OA
ATOM     20  C   UNL     1      13.762  28.772  55.465  0.00  0.00    +0.000 C 
ENDBRANCH   6  19
TORSDOF 4
ENDMDL
