MODEL 1
REMARK VINA RESULT:      -0.0      0.000      0.000
REMARK  Name = 
REMARK  6 active torsions:
REMARK  status: ('A' for Active; 'I' for Inactive)
REMARK    1  A    between atoms: O_2  and  C_3
REMARK    2  A    between atoms: C_6  and  C_7
REMARK    3  A    between atoms: C_8  and  C_9
REMARK    4  A    between atoms: C_11  and  O_12
REMARK    5  A    between atoms: C_14  and  O_15
REMARK    6  A    between atoms: C_17  and  O_18
REMARK                            x       y       z     vdW  Elec       q    Type
REMARK                         _______ _______ _______ _____ _____    ______ ____
ROOT
ATOM      1  C   UNL     1      -7.307  18.700  50.639  0.00  0.00    +0.000 A 
ATOM      2  C   UNL     1      -7.973  17.653  50.067  0.00  0.00    +0.000 A 
ATOM      3  C   UNL     1      -9.271  17.346  50.448  0.00  0.00    +0.000 A 
ATOM      4  C   UNL     1      -9.794  17.942  51.589  0.00  0.00    +0.000 A 
ATOM      5  C   UNL     1      -9.210  19.086  52.082  0.00  0.00    +0.000 A 
ATOM      6  C   UNL     1      -8.034  19.506  51.506  0.00  0.00    +0.000 A 
ENDROOT
BRANCH   1   8
ATOM      7  C   UNL     1      -5.007  18.576  50.136  0.00  0.00    +0.000 C 
ATOM      8  C   UNL     1      -6.110  19.321  50.058  0.00  0.00    +0.000 C 
BRANCH   7  12
ATOM      9  C   UNL     1      -2.461  17.588  53.190  0.00  0.00    +0.000 A 
ATOM     10  C   UNL     1      -3.122  18.807  53.277  0.00  0.00    +0.000 A 
ATOM     11  C   UNL     1      -4.006  19.136  52.256  0.00  0.00    +0.000 A 
ATOM     12  C   UNL     1      -4.645  18.161  51.500  0.00  0.00    +0.000 A 
ATOM     13  C   UNL     1      -4.250  16.856  51.776  0.00  0.00    +0.000 A 
ATOM     14  C   UNL     1      -3.174  16.562  52.584  0.00  0.00    +0.000 A 
ATOM     15  N   UNL     1      -2.636  15.239  52.649  0.00  0.00    +0.000 NA
BRANCH   9  17
ATOM     16  C   UNL     1      -1.704  17.493  55.468  0.00  0.00    +0.000 C 
ATOM     17  O   UNL     1      -1.452  17.229  54.091  0.00  0.00    +0.000 OA
ENDBRANCH   9  17
ENDBRANCH   7  12
ENDBRANCH   1   8
BRANCH   3  18
ATOM     18  O   UNL     1     -10.115  16.574  49.655  0.00  0.00    +0.000 OA
ATOM     19  C   UNL     1      -9.952  15.176  49.485  0.00  0.00    +0.000 C 
ENDBRANCH   3  18
BRANCH   4  20
ATOM     20  O   UNL     1     -10.843  17.305  52.227  0.00  0.00    +0.000 OA
ATOM     21  C   UNL     1     -10.675  16.272  53.178  0.00  0.00    +0.000 C 
ENDBRANCH   4  20
BRANCH   5  22
ATOM     22  O   UNL     1      -9.841  19.766  53.117  0.00  0.00    +0.000 OA
ATOM     23  C   UNL     1      -9.412  19.725  54.455  0.00  0.00    +0.000 C 
ENDBRANCH   5  22
TORSDOF 6
ENDMDL
MODEL 2
REMARK VINA RESULT:      -0.0     18.750     21.310
REMARK  Name = 
REMARK  6 active torsions:
REMARK  status: ('A' for Active; 'I' for Inactive)
REMARK    1  A    between atoms: O_2  and  C_3
REMARK    2  A    between atoms: C_6  and  C_7
REMARK    3  A    between atoms: C_8  and  C_9
REMARK    4  A    between atoms: C_11  and  O_12
REMARK    5  A    between atoms: C_14  and  O_15
REMARK    6  A    between atoms: C_17  and  O_18
REMARK                            x       y       z     vdW  Elec       q    Type
REMARK                         _______ _______ _______ _____ _____    ______ ____
ROOT
ATOM      1  C   UNL     1       4.443  20.600  68.117  0.00  0.00    +0.000 A 
ATOM      2  C   UNL     1       4.869  19.463  67.490  0.00  0.00    +0.000 A 
ATOM      3  C   UNL     1       3.963  18.491  67.092  0.00  0.00    +0.000 A 
ATOM      4  C   UNL     1       2.657  18.559  67.562  0.00  0.00    +0.000 A 
ATOM      5  C   UNL     1       2.179  19.750  68.059  0.00  0.00    +0.000 A 
ATOM      6  C   UNL     1       3.069  20.787  68.209  0.00  0.00    +0.000 A 
ENDROOT
BRANCH   1   8
ATOM      7  C   UNL     1       6.269  21.729  69.091  0.00  0.00    +0.000 C 
ATOM      8  C   UNL     1       5.252  21.820  68.234  0.00  0.00    +0.000 C 
BRANCH   7  12
ATOM      9  C   UNL     1       6.540  21.696  73.180  0.00  0.00    +0.000 A 
ATOM     10  C   UNL     1       5.475  22.387  72.614  0.00  0.00    +0.000 A 
ATOM     11  C   UNL     1       5.364  22.381  71.228  0.00  0.00    +0.000 A 
ATOM     12  C   UNL     1       5.884  21.347  70.458  0.00  0.00    +0.000 A 
ATOM     13  C   UNL     1       6.602  20.392  71.171  0.00  0.00    +0.000 A 
ATOM     14  C   UNL     1       6.947  20.559  72.495  0.00  0.00    +0.000 A 
ATOM     15  N   UNL     1       7.892  19.694  73.128  0.00  0.00    +0.000 NA
BRANCH   9  17
ATOM     16  C   UNL     1       5.702  21.644  75.430  0.00  0.00    +0.000 C 
ATOM     17  O   UNL     1       6.817  21.759  74.549  0.00  0.00    +0.000 OA
ENDBRANCH   9  17
ENDBRANCH   7  12
ENDBRANCH   1   8
BRANCH   3  18
ATOM     18  O   UNL     1       4.275  17.533  66.133  0.00  0.00    +0.000 OA
ATOM     19  C   UNL     1       5.159  16.451  66.379  0.00  0.00    +0.000 C 
ENDBRANCH   3  18
BRANCH   4  20
ATOM     20  O   UNL     1       1.916  17.391  67.580  0.00  0.00    +0.000 OA
ATOM     21  C   UNL     1       1.954  16.450  68.635  0.00  0.00    +0.000 C 
ENDBRANCH   4  20
BRANCH   5  22
ATOM     22  O   UNL     1       0.827  19.851  68.366  0.00  0.00    +0.000 OA
ATOM     23  C   UNL     1       0.319  19.824  69.676  0.00  0.00    +0.000 C 
ENDBRANCH   5  22
TORSDOF 6
ENDMDL
MODEL 3
REMARK VINA RESULT:      -0.0      9.025     11.703
REMARK  Name = 
REMARK  6 active torsions:
REMARK  status: ('A' for Active; 'I' for Inactive)
REMARK    1  A    between atoms: O_2  and  C_3
REMARK    2  A    between atoms: C_6  and  C_7
REMARK    3  A    between atoms: C_8  and  C_9
REMARK    4  A    between atoms: C_11  and  O_12
REMARK    5  A    between atoms: C_14  and  O_15
REMARK    6  A    between atoms: C_17  and  O_18
REMARK                            x       y       z     vdW  Elec       q    Type
REMARK                         _______ _______ _______ _____ _____    ______ ____
ROOT
ATOM      1  C   UNL     1      -2.359   7.210  53.609  0.00  0.00    +0.000 A 
ATOM      2  C   UNL     1      -1.938   7.965  54.667  0.00  0.00    +0.000 A 
ATOM      3  C   UNL     1      -2.568   7.872  55.899  0.00  0.00    +0.000 A 
ATOM      4  C   UNL     1      -3.785   7.207  55.981  0.00  0.00    +0.000 A 
ATOM      5  C   UNL     1      -4.144   6.330  54.983  0.00  0.00    +0.000 A 
ATOM      6  C   UNL     1      -3.345   6.266  53.866  0.00  0.00    +0.000 A 
ENDROOT
BRANCH   1   8
ATOM      7  C   UNL     1      -1.414   8.016  51.604  0.00  0.00    +0.000 C 
ATOM      8  C   UNL     1      -1.548   6.961  52.410  0.00  0.00    +0.000 C 
BRANCH   7  12
ATOM      9  C   UNL     1      -3.916   9.913  48.972  0.00  0.00    +0.000 A 
ATOM     10  C   UNL     1      -4.121   8.555  49.185  0.00  0.00    +0.000 A 
ATOM     11  C   UNL     1      -3.291   7.912  50.096  0.00  0.00    +0.000 A 
ATOM     12  C   UNL     1      -2.683   8.597  51.141  0.00  0.00    +0.000 A 
ATOM     13  C   UNL     1      -2.887   9.973  51.134  0.00  0.00    +0.000 A 
ATOM     14  C   UNL     1      -3.470  10.631  50.073  0.00  0.00    +0.000 A 
ATOM     15  N   UNL     1      -3.438  12.057  49.979  0.00  0.00    +0.000 NA
BRANCH   9  17
ATOM     16  C   UNL     1      -6.001  10.362  47.868  0.00  0.00    +0.000 C 
ATOM     17  O   UNL     1      -4.603  10.616  47.977  0.00  0.00    +0.000 OA
ENDBRANCH   9  17
ENDBRANCH   7  12
ENDBRANCH   1   8
BRANCH   3  18
ATOM     18  O   UNL     1      -1.963   8.299  57.077  0.00  0.00    +0.000 OA
ATOM     19  C   UNL     1      -1.777   9.667  57.399  0.00  0.00    +0.000 C 
ENDBRANCH   3  18
BRANCH   4  20
ATOM     20  O   UNL     1      -4.623   7.520  57.037  0.00  0.00    +0.000 OA
ATOM     21  C   UNL     1      -5.531   8.603  57.026  0.00  0.00    +0.000 C 
ENDBRANCH   4  20
BRANCH   5  22
ATOM     22  O   UNL     1      -5.278   5.545  55.159  0.00  0.00    +0.000 OA
ATOM     23  C   UNL     1      -6.505   5.791  54.521  0.00  0.00    +0.000 C 
ENDBRANCH   5  22
TORSDOF 6
ENDMDL
MODEL 4
REMARK VINA RESULT:      -0.0     35.480     38.042
REMARK  Name = 
REMARK  6 active torsions:
REMARK  status: ('A' for Active; 'I' for Inactive)
REMARK    1  A    between atoms: O_2  and  C_3
REMARK    2  A    between atoms: C_6  and  C_7
REMARK    3  A    between atoms: C_8  and  C_9
REMARK    4  A    between atoms: C_11  and  O_12
REMARK    5  A    between atoms: C_14  and  O_15
REMARK    6  A    between atoms: C_17  and  O_18
REMARK                            x       y       z     vdW  Elec       q    Type
REMARK                         _______ _______ _______ _____ _____    ______ ____
ROOT
ATOM      1  C   UNL     1      17.378  15.191  79.666  0.00  0.00    +0.000 A 
ATOM      2  C   UNL     1      16.618  14.154  79.204  0.00  0.00    +0.000 A 
ATOM      3  C   UNL     1      15.874  13.377  80.079  0.00  0.00    +0.000 A 
ATOM      4  C   UNL     1      16.106  13.492  81.443  0.00  0.00    +0.000 A 
ATOM      5  C   UNL     1      16.744  14.612  81.928  0.00  0.00    +0.000 A 
ATOM      6  C   UNL     1      17.260  15.502  81.016  0.00  0.00    +0.000 A 
ENDROOT
BRANCH   1   8
ATOM      7  C   UNL     1      18.874  15.916  77.993  0.00  0.00    +0.000 C 
ATOM      8  C   UNL     1      17.886  16.275  78.814  0.00  0.00    +0.000 C 
BRANCH   7  12
ATOM      9  C   UNL     1      22.849  15.084  78.533  0.00  0.00    +0.000 A 
ATOM     10  C   UNL     1      22.257  15.978  79.416  0.00  0.00    +0.000 A 
ATOM     11  C   UNL     1      20.902  16.245  79.253  0.00  0.00    +0.000 A 
ATOM     12  C   UNL     1      20.042  15.326  78.665  0.00  0.00    +0.000 A 
ATOM     13  C   UNL     1      20.660  14.183  78.167  0.00  0.00    +0.000 A 
ATOM     14  C   UNL     1      22.029  14.059  78.078  0.00  0.00    +0.000 A 
ATOM     15  N   UNL     1      22.630  12.995  77.337  0.00  0.00    +0.000 NA
BRANCH   9  17
ATOM     16  C   UNL     1      24.855  14.697  79.797  0.00  0.00    +0.000 C 
ATOM     17  O   UNL     1      24.230  14.857  78.527  0.00  0.00    +0.000 OA
ENDBRANCH   9  17
ENDBRANCH   7  12
ENDBRANCH   1   8
BRANCH   3  18
ATOM     18  O   UNL     1      14.809  12.589  79.651  0.00  0.00    +0.000 OA
ATOM     19  C   UNL     1      14.981  11.393  78.909  0.00  0.00    +0.000 C 
ENDBRANCH   3  18
BRANCH   4  20
ATOM     20  O   UNL     1      15.751  12.428  82.252  0.00  0.00    +0.000 OA
ATOM     21  C   UNL     1      16.580  11.307  82.487  0.00  0.00    +0.000 C 
ENDBRANCH   4  20
BRANCH   5  22
ATOM     22  O   UNL     1      16.819  14.796  83.303  0.00  0.00    +0.000 OA
ATOM     23  C   UNL     1      17.983  14.577  84.059  0.00  0.00    +0.000 C 
ENDBRANCH   5  22
TORSDOF 6
ENDMDL
MODEL 5
REMARK VINA RESULT:      -0.0     32.479     36.104
REMARK  Name = 
REMARK  6 active torsions:
REMARK  status: ('A' for Active; 'I' for Inactive)
REMARK    1  A    between atoms: O_2  and  C_3
REMARK    2  A    between atoms: C_6  and  C_7
REMARK    3  A    between atoms: C_8  and  C_9
REMARK    4  A    between atoms: C_11  and  O_12
REMARK    5  A    between atoms: C_14  and  O_15
REMARK    6  A    between atoms: C_17  and  O_18
REMARK                            x       y       z     vdW  Elec       q    Type
REMARK                         _______ _______ _______ _____ _____    ______ ____
ROOT
ATOM      1  C   UNL     1      15.964  43.387  64.766  0.00  0.00    +0.000 A 
ATOM      2  C   UNL     1      16.807  42.614  64.017  0.00  0.00    +0.000 A 
ATOM      3  C   UNL     1      16.315  41.801  63.007  0.00  0.00    +0.000 A 
ATOM      4  C   UNL     1      14.945  41.581  62.932  0.00  0.00    +0.000 A 
ATOM      5  C   UNL     1      14.085  42.449  63.565  0.00  0.00    +0.000 A 
ATOM      6  C   UNL     1      14.630  43.415  64.377  0.00  0.00    +0.000 A 
ENDROOT
BRANCH   1   8
ATOM      7  C   UNL     1      17.080  44.194  66.679  0.00  0.00    +0.000 C 
ATOM      8  C   UNL     1      16.407  44.528  65.577  0.00  0.00    +0.000 C 
BRANCH   7  12
ATOM      9  C   UNL     1      15.991  42.618  70.301  0.00  0.00    +0.000 A 
ATOM     10  C   UNL     1      15.049  43.387  69.628  0.00  0.00    +0.000 A 
ATOM     11  C   UNL     1      15.404  43.904  68.388  0.00  0.00    +0.000 A 
ATOM     12  C   UNL     1      16.358  43.289  67.585  0.00  0.00    +0.000 A 
ATOM     13  C   UNL     1      16.990  42.193  68.165  0.00  0.00    +0.000 A 
ATOM     14  C   UNL     1      16.835  41.865  69.495  0.00  0.00    +0.000 A 
ATOM     15  N   UNL     1      17.682  40.900  70.123  0.00  0.00    +0.000 NA
BRANCH   9  17
ATOM     16  C   UNL     1      14.491  41.641  71.903  0.00  0.00    +0.000 C 
ATOM     17  O   UNL     1      15.781  42.172  71.610  0.00  0.00    +0.000 OA
ENDBRANCH   9  17
ENDBRANCH   7  12
ENDBRANCH   1   8
BRANCH   3  18
ATOM     18  O   UNL     1      17.124  41.312  61.986  0.00  0.00    +0.000 OA
ATOM     19  C   UNL     1      18.088  40.292  62.186  0.00  0.00    +0.000 C 
ENDBRANCH   3  18
BRANCH   4  20
ATOM     20  O   UNL     1      14.509  40.442  62.279  0.00  0.00    +0.000 OA
ATOM     21  C   UNL     1      14.399  39.175  62.897  0.00  0.00    +0.000 C 
ENDBRANCH   4  20
BRANCH   5  22
ATOM     22  O   UNL     1      12.720  42.318  63.342  0.00  0.00    +0.000 OA
ATOM     23  C   UNL     1      11.827  41.752  64.268  0.00  0.00    +0.000 C 
ENDBRANCH   5  22
TORSDOF 6
ENDMDL
MODEL 6
REMARK VINA RESULT:      -0.0     20.174     22.234
REMARK  Name = 
REMARK  6 active torsions:
REMARK  status: ('A' for Active; 'I' for Inactive)
REMARK    1  A    between atoms: O_2  and  C_3
REMARK    2  A    between atoms: C_6  and  C_7
REMARK    3  A    between atoms: C_8  and  C_9
REMARK    4  A    between atoms: C_11  and  O_12
REMARK    5  A    between atoms: C_14  and  O_15
REMARK    6  A    between atoms: C_17  and  O_18
REMARK                            x       y       z     vdW  Elec       q    Type
REMARK                         _______ _______ _______ _____ _____    ______ ____
ROOT
ATOM      1  C   UNL     1       8.311  19.469  65.179  0.00  0.00    +0.000 A 
ATOM      2  C   UNL     1       9.325  19.241  64.292  0.00  0.00    +0.000 A 
ATOM      3  C   UNL     1       9.953  18.005  64.236  0.00  0.00    +0.000 A 
ATOM      4  C   UNL     1       9.723  17.090  65.255  0.00  0.00    +0.000 A 
ATOM      5  C   UNL     1       8.616  17.237  66.059  0.00  0.00    +0.000 A 
ATOM      6  C   UNL     1       7.862  18.377  65.911  0.00  0.00    +0.000 A 
ENDROOT
BRANCH   1   8
ATOM      7  C   UNL     1       7.873  21.780  65.340  0.00  0.00    +0.000 C 
ATOM      8  C   UNL     1       7.359  20.582  65.062  0.00  0.00    +0.000 C 
BRANCH   7  12
ATOM      9  C   UNL     1       8.959  23.665  68.813  0.00  0.00    +0.000 A 
ATOM     10  C   UNL     1       7.938  22.724  68.886  0.00  0.00    +0.000 A 
ATOM     11  C   UNL     1       7.583  22.063  67.716  0.00  0.00    +0.000 A 
ATOM     12  C   UNL     1       8.485  21.888  66.673  0.00  0.00    +0.000 A 
ATOM     13  C   UNL     1       9.715  22.511  66.854  0.00  0.00    +0.000 A 
ATOM     14  C   UNL     1       9.955  23.396  67.883  0.00  0.00    +0.000 A 
ATOM     15  N   UNL     1      11.130  24.210  67.902  0.00  0.00    +0.000 NA
BRANCH   9  17
ATOM     16  C   UNL     1       9.377  23.841  71.172  0.00  0.00    +0.000 C 
ATOM     17  O   UNL     1       9.293  24.479  69.900  0.00  0.00    +0.000 OA
ENDBRANCH   9  17
ENDBRANCH   7  12
ENDBRANCH   1   8
BRANCH   3  18
ATOM     18  O   UNL     1      10.693  17.597  63.130  0.00  0.00    +0.000 OA
ATOM     19  C   UNL     1      11.965  18.135  62.809  0.00  0.00    +0.000 C 
ENDBRANCH   3  18
BRANCH   4  20
ATOM     20  O   UNL     1      10.673  16.106  65.466  0.00  0.00    +0.000 OA
ATOM     21  C   UNL     1      11.828  16.285  66.262  0.00  0.00    +0.000 C 
ENDBRANCH   4  20
BRANCH   5  22
ATOM     22  O   UNL     1       8.305  16.225  66.960  0.00  0.00    +0.000 OA
ATOM     23  C   UNL     1       8.539  16.311  68.343  0.00  0.00    +0.000 C 
ENDBRANCH   5  22
TORSDOF 6
ENDMDL
MODEL 7
REMARK VINA RESULT:      -0.0     16.758     18.804
REMARK  Name = 
REMARK  6 active torsions:
REMARK  status: ('A' for Active; 'I' for Inactive)
REMARK    1  A    between atoms: O_2  and  C_3
REMARK    2  A    between atoms: C_6  and  C_7
REMARK    3  A    between atoms: C_8  and  C_9
REMARK    4  A    between atoms: C_11  and  O_12
REMARK    5  A    between atoms: C_14  and  O_15
REMARK    6  A    between atoms: C_17  and  O_18
REMARK                            x       y       z     vdW  Elec       q    Type
REMARK                         _______ _______ _______ _____ _____    ______ ____
ROOT
ATOM      1  C   UNL     1      11.045  17.239  59.820  0.00  0.00    +0.000 A 
ATOM      2  C   UNL     1      10.400  18.303  59.253  0.00  0.00    +0.000 A 
ATOM      3  C   UNL     1       9.488  19.050  59.983  0.00  0.00    +0.000 A 
ATOM      4  C   UNL     1       9.043  18.559  61.204  0.00  0.00    +0.000 A 
ATOM      5  C   UNL     1       9.775  17.588  61.849  0.00  0.00    +0.000 A 
ATOM      6  C   UNL     1      10.842  17.037  61.180  0.00  0.00    +0.000 A 
ENDROOT
BRANCH   1   8
ATOM      7  C   UNL     1      12.081  15.931  58.155  0.00  0.00    +0.000 C 
ATOM      8  C   UNL     1      12.267  16.638  59.270  0.00  0.00    +0.000 C 
BRANCH   7  12
ATOM      9  C   UNL     1      10.452  12.256  57.362  0.00  0.00    +0.000 A 
ATOM     10  C   UNL     1      11.036  12.442  58.610  0.00  0.00    +0.000 A 
ATOM     11  C   UNL     1      11.568  13.694  58.893  0.00  0.00    +0.000 A 
ATOM     12  C   UNL     1      11.096  14.846  58.275  0.00  0.00    +0.000 A 
ATOM     13  C   UNL     1      10.137  14.629  57.291  0.00  0.00    +0.000 A 
ATOM     14  C   UNL     1       9.826  13.372  56.822  0.00  0.00    +0.000 A 
ATOM     15  N   UNL     1       9.033  13.194  55.645  0.00  0.00    +0.000 NA
BRANCH   9  17
ATOM     16  C   UNL     1       9.288  10.218  57.876  0.00  0.00    +0.000 C 
ATOM     17  O   UNL     1      10.016  10.999  56.931  0.00  0.00    +0.000 OA
ENDBRANCH   9  17
ENDBRANCH   7  12
ENDBRANCH   1   8
BRANCH   3  18
ATOM     18  O   UNL     1       9.110  20.335  59.607  0.00  0.00    +0.000 OA
ATOM     19  C   UNL     1       8.269  20.599  58.496  0.00  0.00    +0.000 C 
ENDBRANCH   3  18
BRANCH   4  20
ATOM     20  O   UNL     1       7.829  19.018  61.682  0.00  0.00    +0.000 OA
ATOM     21  C   UNL     1       6.580  18.466  61.317  0.00  0.00    +0.000 C 
ENDBRANCH   4  20
BRANCH   5  22
ATOM     22  O   UNL     1       9.415  17.228  63.143  0.00  0.00    +0.000 OA
ATOM     23  C   UNL     1       8.736  16.040  63.463  0.00  0.00    +0.000 C 
ENDBRANCH   5  22
TORSDOF 6
ENDMDL
MODEL 8
REMARK VINA RESULT:      -0.0     25.398     29.290
REMARK  Name = 
REMARK  6 active torsions:
REMARK  status: ('A' for Active; 'I' for Inactive)
REMARK    1  A    between atoms: O_2  and  C_3
REMARK    2  A    between atoms: C_6  and  C_7
REMARK    3  A    between atoms: C_8  and  C_9
REMARK    4  A    between atoms: C_11  and  O_12
REMARK    5  A    between atoms: C_14  and  O_15
REMARK    6  A    between atoms: C_17  and  O_18
REMARK                            x       y       z     vdW  Elec       q    Type
REMARK                         _______ _______ _______ _____ _____    ______ ____
ROOT
ATOM      1  C   UNL     1      21.705  21.609  54.819  0.00  0.00    +0.000 A 
ATOM      2  C   UNL     1      22.886  21.932  54.213  0.00  0.00    +0.000 A 
ATOM      3  C   UNL     1      24.068  21.968  54.937  0.00  0.00    +0.000 A 
ATOM      4  C   UNL     1      24.006  21.926  56.324  0.00  0.00    +0.000 A 
ATOM      5  C   UNL     1      22.866  21.459  56.936  0.00  0.00    +0.000 A 
ATOM      6  C   UNL     1      21.774  21.193  56.144  0.00  0.00    +0.000 A 
ENDROOT
BRANCH   1   8
ATOM      7  C   UNL     1      19.890  22.165  53.421  0.00  0.00    +0.000 C 
ATOM      8  C   UNL     1      20.501  21.187  54.091  0.00  0.00    +0.000 C 
BRANCH   7  12
ATOM      9  C   UNL     1      17.554  25.340  54.539  0.00  0.00    +0.000 A 
ATOM     10  C   UNL     1      17.530  24.211  55.349  0.00  0.00    +0.000 A 
ATOM     11  C   UNL     1      18.339  23.140  54.988  0.00  0.00    +0.000 A 
ATOM     12  C   UNL     1      19.500  23.319  54.245  0.00  0.00    +0.000 A 
ATOM     13  C   UNL     1      19.721  24.622  53.812  0.00  0.00    +0.000 A 
ATOM     14  C   UNL     1      18.772  25.615  53.931  0.00  0.00    +0.000 A 
ATOM     15  N   UNL     1      18.921  26.867  53.258  0.00  0.00    +0.000 NA
BRANCH   9  17
ATOM     16  C   UNL     1      16.490  26.841  56.084  0.00  0.00    +0.000 C 
ATOM     17  O   UNL     1      16.676  26.410  54.738  0.00  0.00    +0.000 OA
ENDBRANCH   9  17
ENDBRANCH   7  12
ENDBRANCH   1   8
BRANCH   3  18
ATOM     18  O   UNL     1      25.316  21.902  54.325  0.00  0.00    +0.000 OA
ATOM     19  C   UNL     1      25.870  22.975  53.580  0.00  0.00    +0.000 C 
ENDBRANCH   3  18
BRANCH   4  20
ATOM     20  O   UNL     1      25.079  22.437  57.034  0.00  0.00    +0.000 OA
ATOM     21  C   UNL     1      25.229  23.805  57.357  0.00  0.00    +0.000 C 
ENDBRANCH   4  20
BRANCH   5  22
ATOM     22  O   UNL     1      22.878  21.262  58.312  0.00  0.00    +0.000 OA
ATOM     23  C   UNL     1      22.261  22.128  59.231  0.00  0.00    +0.000 C 
ENDBRANCH   5  22
TORSDOF 6
ENDMDL
MODEL 9
REMARK VINA RESULT:      -0.0     34.304     36.853
REMARK  Name = 
REMARK  6 active torsions:
REMARK  status: ('A' for Active; 'I' for Inactive)
REMARK    1  A    between atoms: O_2  and  C_3
REMARK    2  A    between atoms: C_6  and  C_7
REMARK    3  A    between atoms: C_8  and  C_9
REMARK    4  A    between atoms: C_11  and  O_12
REMARK    5  A    between atoms: C_14  and  O_15
REMARK    6  A    between atoms: C_17  and  O_18
REMARK                            x       y       z     vdW  Elec       q    Type
REMARK                         _______ _______ _______ _____ _____    ______ ____
ROOT
ATOM      1  C   UNL     1      21.504  23.332  73.960  0.00  0.00    +0.000 A 
ATOM      2  C   UNL     1      21.739  22.022  74.269  0.00  0.00    +0.000 A 
ATOM      3  C   UNL     1      22.612  21.680  75.291  0.00  0.00    +0.000 A 
ATOM      4  C   UNL     1      23.438  22.662  75.823  0.00  0.00    +0.000 A 
ATOM      5  C   UNL     1      23.120  23.988  75.636  0.00  0.00    +0.000 A 
ATOM      6  C   UNL     1      22.072  24.284  74.798  0.00  0.00    +0.000 A 
ENDROOT
BRANCH   1   8
ATOM      7  C   UNL     1      20.411  23.495  71.877  0.00  0.00    +0.000 C 
ATOM      8  C   UNL     1      20.350  23.792  73.176  0.00  0.00    +0.000 C 
BRANCH   7  12
ATOM      9  C   UNL     1      22.571  24.976  68.726  0.00  0.00    +0.000 A 
ATOM     10  C   UNL     1      22.282  25.847  69.771  0.00  0.00    +0.000 A 
ATOM     11  C   UNL     1      21.571  25.343  70.853  0.00  0.00    +0.000 A 
ATOM     12  C   UNL     1      21.611  23.996  71.191  0.00  0.00    +0.000 A 
ATOM     13  C   UNL     1      22.325  23.193  70.307  0.00  0.00    +0.000 A 
ATOM     14  C   UNL     1      22.782  23.653  69.092  0.00  0.00    +0.000 A 
ATOM     15  N   UNL     1      23.284  22.754  68.100  0.00  0.00    +0.000 NA
BRANCH   9  17
ATOM     16  C   UNL     1      24.246  26.329  67.662  0.00  0.00    +0.000 C 
ATOM     17  O   UNL     1      23.157  25.419  67.536  0.00  0.00    +0.000 OA
ENDBRANCH   9  17
ENDBRANCH   7  12
ENDBRANCH   1   8
BRANCH   3  18
ATOM     18  O   UNL     1      22.593  20.428  75.898  0.00  0.00    +0.000 OA
ATOM     19  C   UNL     1      23.057  19.251  75.257  0.00  0.00    +0.000 C 
ENDBRANCH   3  18
BRANCH   4  20
ATOM     20  O   UNL     1      24.599  22.255  76.457  0.00  0.00    +0.000 OA
ATOM     21  C   UNL     1      25.813  21.989  75.781  0.00  0.00    +0.000 C 
ENDBRANCH   4  20
BRANCH   5  22
ATOM     22  O   UNL     1      23.855  24.953  76.314  0.00  0.00    +0.000 OA
ATOM     23  C   UNL     1      24.837  25.755  75.709  0.00  0.00    +0.000 C 
ENDBRANCH   5  22
TORSDOF 6
ENDMDL
MODEL 10
REMARK VINA RESULT:      -0.0     28.419     31.568
REMARK  Name = 
REMARK  6 active torsions:
REMARK  status: ('A' for Active; 'I' for Inactive)
REMARK    1  A    between atoms: O_2  and  C_3
REMARK    2  A    between atoms: C_6  and  C_7
REMARK    3  A    between atoms: C_8  and  C_9
REMARK    4  A    between atoms: C_11  and  O_12
REMARK    5  A    between atoms: C_14  and  O_15
REMARK    6  A    between atoms: C_17  and  O_18
REMARK                            x       y       z     vdW  Elec       q    Type
REMARK                         _______ _______ _______ _____ _____    ______ ____
ROOT
ATOM      1  C   UNL     1      22.067  13.857  65.700  0.00  0.00    +0.000 A 
ATOM      2  C   UNL     1      21.840  12.524  65.895  0.00  0.00    +0.000 A 
ATOM      3  C   UNL     1      20.999  11.817  65.049  0.00  0.00    +0.000 A 
ATOM      4  C   UNL     1      20.191  12.521  64.165  0.00  0.00    +0.000 A 
ATOM      5  C   UNL     1      20.505  13.824  63.854  0.00  0.00    +0.000 A 
ATOM      6  C   UNL     1      21.527  14.423  64.552  0.00  0.00    +0.000 A 
ENDROOT
BRANCH   1   8
ATOM      7  C   UNL     1      23.096  14.797  67.603  0.00  0.00    +0.000 C 
ATOM      8  C   UNL     1      23.197  14.588  66.289  0.00  0.00    +0.000 C 
BRANCH   7  12
ATOM      9  C   UNL     1      20.841  17.323  69.909  0.00  0.00    +0.000 A 
ATOM     10  C   UNL     1      21.163  17.745  68.624  0.00  0.00    +0.000 A 
ATOM     11  C   UNL     1      21.907  16.881  67.829  0.00  0.00    +0.000 A 
ATOM     12  C   UNL     1      21.875  15.505  68.017  0.00  0.00    +0.000 A 
ATOM     13  C   UNL     1      21.133  15.082  69.115  0.00  0.00    +0.000 A 
ATOM     14  C   UNL     1      20.639  15.957  70.058  0.00  0.00    +0.000 A 
ATOM     15  N   UNL     1      20.105  15.487  71.298  0.00  0.00    +0.000 NA
BRANCH   9  17
ATOM     16  C   UNL     1      19.135  18.957  70.343  0.00  0.00    +0.000 C 
ATOM     17  O   UNL     1      20.219  18.172  70.831  0.00  0.00    +0.000 OA
ENDBRANCH   9  17
ENDBRANCH   7  12
ENDBRANCH   1   8
BRANCH   3  18
ATOM     18  O   UNL     1      21.036  10.429  64.954  0.00  0.00    +0.000 OA
ATOM     19  C   UNL     1      20.550   9.571  65.973  0.00  0.00    +0.000 C 
ENDBRANCH   3  18
BRANCH   4  20
ATOM     20  O   UNL     1      19.049  11.896  63.695  0.00  0.00    +0.000 OA
ATOM     21  C   UNL     1      17.815  11.888  64.385  0.00  0.00    +0.000 C 
ENDBRANCH   4  20
BRANCH   5  22
ATOM     22  O   UNL     1      19.793  14.460  62.844  0.00  0.00    +0.000 OA
ATOM     23  C   UNL     1      18.793  15.420  63.078  0.00  0.00    +0.000 C 
ENDBRANCH   5  22
TORSDOF 6
ENDMDL
