REMARK  Name = 
REMARK  5 active torsions:
REMARK  status: ('A' for Active; 'I' for Inactive)
REMARK    1  A    between atoms: O_2  and  C_3
REMARK    2  A    between atoms: C_6  and  C_7
REMARK    3  A    between atoms: C_8  and  C_9
REMARK    4  A    between atoms: C_11  and  O_12
REMARK    5  A    between atoms: C_15  and  O_16
REMARK                            x       y       z     vdW  Elec       q    Type
REMARK                         _______ _______ _______ _____ _____    ______ ____
ROOT
ATOM      1  C   UNL     1       0.988  -0.715  -1.706  0.00  0.00    +0.000 C 
ATOM      2  C   UNL     1       0.034  -1.376  -1.075  0.00  0.00    +0.000 C 
ENDROOT
BRANCH   1   6
ATOM      3  C   UNL     1       4.117   1.091   0.221  0.00  0.00    +0.000 A 
ATOM      4  C   UNL     1       3.067   0.635   1.010  0.00  0.00    +0.000 A 
ATOM      5  C   UNL     1       1.869   0.227   0.437  0.00  0.00    +0.000 A 
ATOM      6  C   UNL     1       1.649   0.342  -0.929  0.00  0.00    +0.000 A 
ATOM      7  C   UNL     1       2.536   1.179  -1.596  0.00  0.00    +0.000 A 
ATOM      8  C   UNL     1       3.740   1.577  -1.025  0.00  0.00    +0.000 A 
BRANCH   3  10
ATOM      9  C   UNL     1       5.832  -0.667   0.487  0.00  0.00    +0.000 C 
ATOM     10  O   UNL     1       5.436   0.701   0.474  0.00  0.00    +0.000 OA
ENDBRANCH   3  10
ENDBRANCH   1   6
BRANCH   2  11
ATOM     11  C   UNL     1      -1.028  -0.540  -0.495  0.00  0.00    +0.000 A 
ATOM     12  C   UNL     1      -2.189  -0.458  -1.258  0.00  0.00    +0.000 A 
ATOM     13  C   UNL     1      -3.441  -0.311  -0.676  0.00  0.00    +0.000 A 
ATOM     14  C   UNL     1      -3.478  -0.056   0.688  0.00  0.00    +0.000 A 
ATOM     15  C   UNL     1      -2.369  -0.266   1.464  0.00  0.00    +0.000 A 
ATOM     16  C   UNL     1      -1.249  -0.767   0.860  0.00  0.00    +0.000 A 
BRANCH  13  17
ATOM     17  O   UNL     1      -4.625  -0.541  -1.377  0.00  0.00    +0.000 OA
ATOM     18  C   UNL     1      -4.938  -1.862  -1.774  0.00  0.00    +0.000 C 
ENDBRANCH  13  17
BRANCH  15  19
ATOM     19  O   UNL     1      -2.356   0.150   2.800  0.00  0.00    +0.000 OA
ATOM     20  C   UNL     1      -3.595   0.191   3.473  0.00  0.00    +0.000 C 
ENDBRANCH  15  19
ENDBRANCH   2  11
TORSDOF 5
