REMARK  Name = 
REMARK  4 active torsions:
REMARK  status: ('A' for Active; 'I' for Inactive)
REMARK    1  A    between atoms: O_2  and  C_3
REMARK    2  A    between atoms: C_5  and  C_6
REMARK    3  A    between atoms: C_7  and  C_8
REMARK    4  A    between atoms: C_17  and  O_18
REMARK                            x       y       z     vdW  Elec       q    Type
REMARK                         _______ _______ _______ _____ _____    ______ ____
ROOT
ATOM      1  C   UNL     1      -2.608   0.298   1.140  0.00  0.00    +0.000 A 
ATOM      2  C   UNL     1      -1.455   0.613   0.433  0.00  0.00    +0.000 A 
ATOM      3  C   UNL     1      -0.782  -0.332  -0.333  0.00  0.00    +0.000 A 
ATOM      4  C   UNL     1      -1.362  -1.591  -0.403  0.00  0.00    +0.000 A 
ATOM      5  C   UNL     1      -2.565  -1.903   0.175  0.00  0.00    +0.000 A 
ATOM      6  C   UNL     1      -3.175  -0.962   0.995  0.00  0.00    +0.000 A 
ENDROOT
BRANCH   1   8
ATOM      7  C   UNL     1      -4.098   2.124   0.751  0.00  0.00    +0.000 C 
ATOM      8  O   UNL     1      -3.433   1.283   1.691  0.00  0.00    +0.000 OA
ENDBRANCH   1   8
BRANCH   3   9
ATOM      9  C   UNL     1      -0.096   0.199  -1.518  0.00  0.00    +0.000 C 
ATOM     10  C   UNL     1       0.644   1.277  -1.321  0.00  0.00    +0.000 C 
BRANCH  10  11
ATOM     11  C   UNL     1       1.608   1.208  -0.214  0.00  0.00    +0.000 A 
ATOM     12  C   UNL     1       2.526   2.246  -0.099  0.00  0.00    +0.000 A 
ATOM     13  C   UNL     1       3.864   2.012   0.196  0.00  0.00    +0.000 A 
ATOM     14  C   UNL     1       4.279   0.736   0.556  0.00  0.00    +0.000 A 
ATOM     15  O   UNL     1       5.567   0.272   0.332  0.00  0.00    +0.000 OA
ATOM     16  C   UNL     1       3.300  -0.226   0.773  0.00  0.00    +0.000 A 
ATOM     17  O   UNL     1       3.598  -1.222   1.710  0.00  0.00    +0.000 OA
ATOM     18  C   UNL     1       2.000  -0.006   0.336  0.00  0.00    +0.000 A 
ENDBRANCH  10  11
ENDBRANCH   3   9
BRANCH   5  19
ATOM     19  O   UNL     1      -3.261  -3.081  -0.067  0.00  0.00    +0.000 OA
ATOM     20  C   UNL     1      -4.550  -2.945  -0.660  0.00  0.00    +0.000 C 
ENDBRANCH   5  19
TORSDOF 4
