MODEL 1
REMARK VINA RESULT:       0.0      0.000      0.000
REMARK  Name = 
REMARK  4 active torsions:
REMARK  status: ('A' for Active; 'I' for Inactive)
REMARK    1  A    between atoms: O_2  and  C_3
REMARK    2  A    between atoms: C_5  and  C_6
REMARK    3  A    between atoms: C_7  and  C_8
REMARK    4  A    between atoms: C_17  and  O_18
REMARK                            x       y       z     vdW  Elec       q    Type
REMARK                         _______ _______ _______ _____ _____    ______ ____
ROOT
ATOM      1  C   UNL     1     -10.011  33.565  59.439  0.00  0.00    +0.000 A 
ATOM      2  C   UNL     1      -9.752  34.591  60.339  0.00  0.00    +0.000 A 
ATOM      3  C   UNL     1      -9.391  35.865  59.916  0.00  0.00    +0.000 A 
ATOM      4  C   UNL     1      -9.365  36.072  58.544  0.00  0.00    +0.000 A 
ATOM      5  C   UNL     1      -9.738  35.122  57.628  0.00  0.00    +0.000 A 
ATOM      6  C   UNL     1     -10.021  33.838  58.077  0.00  0.00    +0.000 A 
ENDROOT
BRANCH   1   8
ATOM      7  C   UNL     1     -11.419  32.448  61.012  0.00  0.00    +0.000 C 
ATOM      8  O   UNL     1     -10.624  32.371  59.831  0.00  0.00    +0.000 OA
ENDBRANCH   1   8
BRANCH   3   9
ATOM      9  C   UNL     1      -9.832  36.961  60.789  0.00  0.00    +0.000 C 
ATOM     10  C   UNL     1      -9.028  37.252  61.798  0.00  0.00    +0.000 C 
BRANCH  10  11
ATOM     11  C   UNL     1      -7.614  37.463  61.461  0.00  0.00    +0.000 A 
ATOM     12  C   UNL     1      -6.669  36.746  62.187  0.00  0.00    +0.000 A 
ATOM     13  C   UNL     1      -5.494  37.334  62.641  0.00  0.00    +0.000 A 
ATOM     14  C   UNL     1      -5.157  38.616  62.226  0.00  0.00    +0.000 A 
ATOM     15  O   UNL     1      -4.378  39.474  62.988  0.00  0.00    +0.000 OA
ATOM     16  C   UNL     1      -5.932  39.198  61.230  0.00  0.00    +0.000 A 
ATOM     17  O   UNL     1      -5.284  40.103  60.382  0.00  0.00    +0.000 OA
ATOM     18  C   UNL     1      -7.167  38.654  60.903  0.00  0.00    +0.000 A 
ENDBRANCH  10  11
ENDBRANCH   3   9
BRANCH   5  19
ATOM     19  O   UNL     1      -9.928  35.379  56.276  0.00  0.00    +0.000 OA
ATOM     20  C   UNL     1      -9.491  36.651  55.805  0.00  0.00    +0.000 C 
ENDBRANCH   5  19
TORSDOF 4
ENDMDL
MODEL 2
REMARK VINA RESULT:       0.0     13.026     14.915
REMARK  Name = 
REMARK  4 active torsions:
REMARK  status: ('A' for Active; 'I' for Inactive)
REMARK    1  A    between atoms: O_2  and  C_3
REMARK    2  A    between atoms: C_5  and  C_6
REMARK    3  A    between atoms: C_7  and  C_8
REMARK    4  A    between atoms: C_17  and  O_18
REMARK                            x       y       z     vdW  Elec       q    Type
REMARK                         _______ _______ _______ _____ _____    ______ ____
ROOT
ATOM      1  C   UNL     1      -7.113  23.401  64.717  0.00  0.00    +0.000 A 
ATOM      2  C   UNL     1      -5.947  24.097  65.004  0.00  0.00    +0.000 A 
ATOM      3  C   UNL     1      -4.728  23.760  64.425  0.00  0.00    +0.000 A 
ATOM      4  C   UNL     1      -4.755  22.730  63.496  0.00  0.00    +0.000 A 
ATOM      5  C   UNL     1      -5.906  22.105  63.091  0.00  0.00    +0.000 A 
ATOM      6  C   UNL     1      -7.095  22.412  63.741  0.00  0.00    +0.000 A 
ENDROOT
BRANCH   1   8
ATOM      7  C   UNL     1      -8.445  25.286  65.333  0.00  0.00    +0.000 C 
ATOM      8  O   UNL     1      -8.374  23.885  65.077  0.00  0.00    +0.000 OA
ENDBRANCH   1   8
BRANCH   3   9
ATOM      9  C   UNL     1      -3.807  24.883  64.212  0.00  0.00    +0.000 C 
ATOM     10  C   UNL     1      -3.047  25.210  65.244  0.00  0.00    +0.000 C 
BRANCH  10  11
ATOM     11  C   UNL     1      -2.306  24.111  65.877  0.00  0.00    +0.000 A 
ATOM     12  C   UNL     1      -2.416  23.976  67.257  0.00  0.00    +0.000 A 
ATOM     13  C   UNL     1      -1.314  23.695  68.056  0.00  0.00    +0.000 A 
ATOM     14  C   UNL     1      -0.099  23.368  67.467  0.00  0.00    +0.000 A 
ATOM     15  O   UNL     1       1.123  23.610  68.077  0.00  0.00    +0.000 OA
ATOM     16  C   UNL     1      -0.079  23.168  66.092  0.00  0.00    +0.000 A 
ATOM     17  O   UNL     1       0.865  22.257  65.605  0.00  0.00    +0.000 OA
ATOM     18  C   UNL     1      -1.148  23.592  65.312  0.00  0.00    +0.000 A 
ENDBRANCH  10  11
ENDBRANCH   3   9
BRANCH   5  19
ATOM     19  O   UNL     1      -5.978  21.233  62.012  0.00  0.00    +0.000 OA
ATOM     20  C   UNL     1      -4.737  20.763  61.492  0.00  0.00    +0.000 C 
ENDBRANCH   5  19
TORSDOF 4
ENDMDL
MODEL 3
REMARK VINA RESULT:       0.0     35.335     36.538
REMARK  Name = 
REMARK  4 active torsions:
REMARK  status: ('A' for Active; 'I' for Inactive)
REMARK    1  A    between atoms: O_2  and  C_3
REMARK    2  A    between atoms: C_5  and  C_6
REMARK    3  A    between atoms: C_7  and  C_8
REMARK    4  A    between atoms: C_17  and  O_18
REMARK                            x       y       z     vdW  Elec       q    Type
REMARK                         _______ _______ _______ _____ _____    ______ ____
ROOT
ATOM      1  C   UNL     1      18.621  14.710  53.758  0.00  0.00    +0.000 A 
ATOM      2  C   UNL     1      18.164  14.210  54.971  0.00  0.00    +0.000 A 
ATOM      3  C   UNL     1      18.924  14.292  56.132  0.00  0.00    +0.000 A 
ATOM      4  C   UNL     1      20.137  14.959  56.026  0.00  0.00    +0.000 A 
ATOM      5  C   UNL     1      20.563  15.576  54.879  0.00  0.00    +0.000 A 
ATOM      6  C   UNL     1      19.819  15.412  53.717  0.00  0.00    +0.000 A 
ENDROOT
BRANCH   1   8
ATOM      7  C   UNL     1      16.380  14.889  52.950  0.00  0.00    +0.000 C 
ATOM      8  O   UNL     1      17.775  14.872  52.657  0.00  0.00    +0.000 OA
ENDBRANCH   1   8
BRANCH   3   9
ATOM      9  C   UNL     1      18.152  14.420  57.375  0.00  0.00    +0.000 C 
ATOM     10  C   UNL     1      17.727  13.287  57.908  0.00  0.00    +0.000 C 
BRANCH  10  11
ATOM     11  C   UNL     1      18.739  12.237  58.091  0.00  0.00    +0.000 A 
ATOM     12  C   UNL     1      18.436  10.966  57.616  0.00  0.00    +0.000 A 
ATOM     13  C   UNL     1      18.729   9.821  58.347  0.00  0.00    +0.000 A 
ATOM     14  C   UNL     1      19.495   9.916  59.502  0.00  0.00    +0.000 A 
ATOM     15  O   UNL     1      19.386   9.017  60.553  0.00  0.00    +0.000 OA
ATOM     16  C   UNL     1      20.084  11.141  59.789  0.00  0.00    +0.000 A 
ATOM     17  O   UNL     1      21.297  11.104  60.487  0.00  0.00    +0.000 OA
ATOM     18  C   UNL     1      19.662  12.287  59.128  0.00  0.00    +0.000 A 
ENDBRANCH  10  11
ENDBRANCH   3   9
BRANCH   5  19
ATOM     19  O   UNL     1      21.659  16.428  54.816  0.00  0.00    +0.000 OA
ATOM     20  C   UNL     1      22.601  16.328  55.881  0.00  0.00    +0.000 C 
ENDBRANCH   5  19
TORSDOF 4
ENDMDL
MODEL 4
REMARK VINA RESULT:       0.0     22.101     24.721
REMARK  Name = 
REMARK  4 active torsions:
REMARK  status: ('A' for Active; 'I' for Inactive)
REMARK    1  A    between atoms: O_2  and  C_3
REMARK    2  A    between atoms: C_5  and  C_6
REMARK    3  A    between atoms: C_7  and  C_8
REMARK    4  A    between atoms: C_17  and  O_18
REMARK                            x       y       z     vdW  Elec       q    Type
REMARK                         _______ _______ _______ _____ _____    ______ ____
ROOT
ATOM      1  C   UNL     1       6.959  21.383  73.176  0.00  0.00    +0.000 A 
ATOM      2  C   UNL     1       5.724  21.577  72.572  0.00  0.00    +0.000 A 
ATOM      3  C   UNL     1       4.546  21.109  73.142  0.00  0.00    +0.000 A 
ATOM      4  C   UNL     1       4.666  20.494  74.381  0.00  0.00    +0.000 A 
ATOM      5  C   UNL     1       5.848  20.399  75.067  0.00  0.00    +0.000 A 
ATOM      6  C   UNL     1       7.018  20.807  74.439  0.00  0.00    +0.000 A 
ENDROOT
BRANCH   1   8
ATOM      7  C   UNL     1       7.884  23.373  72.233  0.00  0.00    +0.000 C 
ATOM      8  O   UNL     1       8.105  22.066  72.759  0.00  0.00    +0.000 OA
ENDBRANCH   1   8
BRANCH   3   9
ATOM      9  C   UNL     1       3.354  21.921  72.867  0.00  0.00    +0.000 C 
ATOM     10  C   UNL     1       2.729  21.662  71.731  0.00  0.00    +0.000 C 
BRANCH  10  11
ATOM     11  C   UNL     1       2.403  20.251  71.477  0.00  0.00    +0.000 A 
ATOM     12  C   UNL     1       2.751  19.727  70.238  0.00  0.00    +0.000 A 
ATOM     13  C   UNL     1       1.893  18.895  69.527  0.00  0.00    +0.000 A 
ATOM     14  C   UNL     1       0.730  18.428  70.127  0.00  0.00    +0.000 A 
ATOM     15  O   UNL     1      -0.407  18.093  69.405  0.00  0.00    +0.000 OA
ATOM     16  C   UNL     1       0.556  18.676  71.483  0.00  0.00    +0.000 A 
ATOM     17  O   UNL     1      -0.182  17.730  72.203  0.00  0.00    +0.000 OA
ATOM     18  C   UNL     1       1.348  19.621  72.124  0.00  0.00    +0.000 A 
ENDBRANCH  10  11
ENDBRANCH   3   9
BRANCH   5  19
ATOM     19  O   UNL     1       5.948  19.989  76.391  0.00  0.00    +0.000 OA
ATOM     20  C   UNL     1       4.788  19.381  76.955  0.00  0.00    +0.000 C 
ENDBRANCH   5  19
TORSDOF 4
ENDMDL
MODEL 5
REMARK VINA RESULT:       0.0     23.123     26.706
REMARK  Name = 
REMARK  4 active torsions:
REMARK  status: ('A' for Active; 'I' for Inactive)
REMARK    1  A    between atoms: O_2  and  C_3
REMARK    2  A    between atoms: C_5  and  C_6
REMARK    3  A    between atoms: C_7  and  C_8
REMARK    4  A    between atoms: C_17  and  O_18
REMARK                            x       y       z     vdW  Elec       q    Type
REMARK                         _______ _______ _______ _____ _____    ______ ____
ROOT
ATOM      1  C   UNL     1      11.129  32.226  73.337  0.00  0.00    +0.000 A 
ATOM      2  C   UNL     1      11.265  33.218  74.299  0.00  0.00    +0.000 A 
ATOM      3  C   UNL     1      12.511  33.703  74.682  0.00  0.00    +0.000 A 
ATOM      4  C   UNL     1      13.606  33.185  74.005  0.00  0.00    +0.000 A 
ATOM      5  C   UNL     1      13.502  32.301  72.963  0.00  0.00    +0.000 A 
ATOM      6  C   UNL     1      12.252  31.779  72.653  0.00  0.00    +0.000 A 
ENDROOT
BRANCH   1   8
ATOM      7  C   UNL     1       8.976  33.007  72.656  0.00  0.00    +0.000 C 
ATOM      8  O   UNL     1       9.894  31.920  72.756  0.00  0.00    +0.000 OA
ENDBRANCH   1   8
BRANCH   3   9
ATOM      9  C   UNL     1      12.533  35.113  75.092  0.00  0.00    +0.000 C 
ATOM     10  C   UNL     1      12.216  35.352  76.353  0.00  0.00    +0.000 C 
BRANCH  10  11
ATOM     11  C   UNL     1      12.933  34.561  77.363  0.00  0.00    +0.000 A 
ATOM     12  C   UNL     1      12.171  33.923  78.336  0.00  0.00    +0.000 A 
ATOM     13  C   UNL     1      12.552  33.910  79.672  0.00  0.00    +0.000 A 
ATOM     14  C   UNL     1      13.803  34.391  80.039  0.00  0.00    +0.000 A 
ATOM     15  O   UNL     1      14.065  34.929  81.291  0.00  0.00    +0.000 OA
ATOM     16  C   UNL     1      14.696  34.711  79.025  0.00  0.00    +0.000 A 
ATOM     17  O   UNL     1      16.056  34.554  79.315  0.00  0.00    +0.000 OA
ATOM     18  C   UNL     1      14.244  34.850  77.718  0.00  0.00    +0.000 A 
ENDBRANCH  10  11
ENDBRANCH   3   9
BRANCH   5  19
ATOM     19  O   UNL     1      14.561  31.945  72.137  0.00  0.00    +0.000 OA
ATOM     20  C   UNL     1      15.868  32.262  72.610  0.00  0.00    +0.000 C 
ENDBRANCH   5  19
TORSDOF 4
ENDMDL
MODEL 6
REMARK VINA RESULT:       0.0     28.684     30.989
REMARK  Name = 
REMARK  4 active torsions:
REMARK  status: ('A' for Active; 'I' for Inactive)
REMARK    1  A    between atoms: O_2  and  C_3
REMARK    2  A    between atoms: C_5  and  C_6
REMARK    3  A    between atoms: C_7  and  C_8
REMARK    4  A    between atoms: C_17  and  O_18
REMARK                            x       y       z     vdW  Elec       q    Type
REMARK                         _______ _______ _______ _____ _____    ______ ____
ROOT
ATOM      1  C   UNL     1      12.006  20.131  69.640  0.00  0.00    +0.000 A 
ATOM      2  C   UNL     1      11.623  19.215  70.611  0.00  0.00    +0.000 A 
ATOM      3  C   UNL     1      12.344  19.047  71.788  0.00  0.00    +0.000 A 
ATOM      4  C   UNL     1      13.431  19.892  71.967  0.00  0.00    +0.000 A 
ATOM      5  C   UNL     1      13.763  20.894  71.092  0.00  0.00    +0.000 A 
ATOM      6  C   UNL     1      13.071  20.987  69.891  0.00  0.00    +0.000 A 
ENDROOT
BRANCH   1   8
ATOM      7  C   UNL     1       9.801  20.083  68.723  0.00  0.00    +0.000 C 
ATOM      8  O   UNL     1      11.159  20.496  68.590  0.00  0.00    +0.000 OA
ENDBRANCH   1   8
BRANCH   3   9
ATOM      9  C   UNL     1      11.546  18.661  72.959  0.00  0.00    +0.000 C 
ATOM     10  C   UNL     1      11.310  17.367  73.094  0.00  0.00    +0.000 C 
BRANCH  10  11
ATOM     11  C   UNL     1      12.481  16.483  73.013  0.00  0.00    +0.000 A 
ATOM     12  C   UNL     1      12.395  15.382  72.167  0.00  0.00    +0.000 A 
ATOM     13  C   UNL     1      12.870  14.131  72.541  0.00  0.00    +0.000 A 
ATOM     14  C   UNL     1      13.604  13.993  73.713  0.00  0.00    +0.000 A 
ATOM     15  O   UNL     1      13.641  12.814  74.444  0.00  0.00    +0.000 OA
ATOM     16  C   UNL     1      13.981  15.151  74.381  0.00  0.00    +0.000 A 
ATOM     17  O   UNL     1      15.179  15.096  75.102  0.00  0.00    +0.000 OA
ATOM     18  C   UNL     1      13.378  16.363  74.067  0.00  0.00    +0.000 A 
ENDBRANCH  10  11
ENDBRANCH   3   9
BRANCH   5  19
ATOM     19  O   UNL     1      14.703  21.880  71.362  0.00  0.00    +0.000 OA
ATOM     20  C   UNL     1      15.561  21.651  72.477  0.00  0.00    +0.000 C 
ENDBRANCH   5  19
TORSDOF 4
ENDMDL
MODEL 7
REMARK VINA RESULT:       0.0     41.013     42.366
REMARK  Name = 
REMARK  4 active torsions:
REMARK  status: ('A' for Active; 'I' for Inactive)
REMARK    1  A    between atoms: O_2  and  C_3
REMARK    2  A    between atoms: C_5  and  C_6
REMARK    3  A    between atoms: C_7  and  C_8
REMARK    4  A    between atoms: C_17  and  O_18
REMARK                            x       y       z     vdW  Elec       q    Type
REMARK                         _______ _______ _______ _____ _____    ______ ____
ROOT
ATOM      1  C   UNL     1      21.916   7.689  54.480  0.00  0.00    +0.000 A 
ATOM      2  C   UNL     1      21.024   6.638  54.311  0.00  0.00    +0.000 A 
ATOM      3  C   UNL     1      20.745   6.106  53.057  0.00  0.00    +0.000 A 
ATOM      4  C   UNL     1      21.456   6.640  51.992  0.00  0.00    +0.000 A 
ATOM      5  C   UNL     1      22.436   7.587  52.135  0.00  0.00    +0.000 A 
ATOM      6  C   UNL     1      22.639   8.153  53.388  0.00  0.00    +0.000 A 
ENDROOT
BRANCH   1   8
ATOM      7  C   UNL     1      22.295   7.058  56.752  0.00  0.00    +0.000 C 
ATOM      8  O   UNL     1      22.402   8.055  55.739  0.00  0.00    +0.000 OA
ENDBRANCH   1   8
BRANCH   3   9
ATOM      9  C   UNL     1      20.421   4.673  53.046  0.00  0.00    +0.000 C 
ATOM     10  C   UNL     1      19.158   4.366  53.288  0.00  0.00    +0.000 C 
BRANCH  10  11
ATOM     11  C   UNL     1      18.153   5.080  52.488  0.00  0.00    +0.000 A 
ATOM     12  C   UNL     1      17.094   5.670  53.169  0.00  0.00    +0.000 A 
ATOM     13  C   UNL     1      15.787   5.592  52.701  0.00  0.00    +0.000 A 
ATOM     14  C   UNL     1      15.535   5.066  51.440  0.00  0.00    +0.000 A 
ATOM     15  O   UNL     1      14.339   4.447  51.109  0.00  0.00    +0.000 OA
ATOM     16  C   UNL     1      16.625   4.793  50.623  0.00  0.00    +0.000 A 
ATOM     17  O   UNL     1      16.417   4.906  49.244  0.00  0.00    +0.000 OA
ATOM     18  C   UNL     1      17.904   4.744  51.163  0.00  0.00    +0.000 A 
ENDBRANCH  10  11
ENDBRANCH   3   9
BRANCH   5  19
ATOM     19  O   UNL     1      23.303   7.969  51.118  0.00  0.00    +0.000 OA
ATOM     20  C   UNL     1      22.965   7.537  49.803  0.00  0.00    +0.000 C 
ENDBRANCH   5  19
TORSDOF 4
ENDMDL
MODEL 8
REMARK VINA RESULT:       0.0     12.391     15.666
REMARK  Name = 
REMARK  4 active torsions:
REMARK  status: ('A' for Active; 'I' for Inactive)
REMARK    1  A    between atoms: O_2  and  C_3
REMARK    2  A    between atoms: C_5  and  C_6
REMARK    3  A    between atoms: C_7  and  C_8
REMARK    4  A    between atoms: C_17  and  O_18
REMARK                            x       y       z     vdW  Elec       q    Type
REMARK                         _______ _______ _______ _____ _____    ______ ____
ROOT
ATOM      1  C   UNL     1       3.159  33.354  65.885  0.00  0.00    +0.000 A 
ATOM      2  C   UNL     1       3.791  33.447  64.652  0.00  0.00    +0.000 A 
ATOM      3  C   UNL     1       5.152  33.208  64.504  0.00  0.00    +0.000 A 
ATOM      4  C   UNL     1       5.832  32.809  65.647  0.00  0.00    +0.000 A 
ATOM      5  C   UNL     1       5.220  32.582  66.852  0.00  0.00    +0.000 A 
ATOM      6  C   UNL     1       3.874  32.902  66.986  0.00  0.00    +0.000 A 
ENDROOT
BRANCH   1   8
ATOM      7  C   UNL     1       1.054  32.945  64.831  0.00  0.00    +0.000 C 
ATOM      8  O   UNL     1       1.766  33.330  66.005  0.00  0.00    +0.000 OA
ENDBRANCH   1   8
BRANCH   3   9
ATOM      9  C   UNL     1       5.550  32.641  63.209  0.00  0.00    +0.000 C 
ATOM     10  C   UNL     1       5.747  33.513  62.235  0.00  0.00    +0.000 C 
BRANCH  10  11
ATOM     11  C   UNL     1       6.636  34.641  62.545  0.00  0.00    +0.000 A 
ATOM     12  C   UNL     1       6.182  35.918  62.236  0.00  0.00    +0.000 A 
ATOM     13  C   UNL     1       7.011  36.871  61.656  0.00  0.00    +0.000 A 
ATOM     14  C   UNL     1       8.371  36.619  61.531  0.00  0.00    +0.000 A 
ATOM     15  O   UNL     1       9.154  37.185  60.535  0.00  0.00    +0.000 OA
ATOM     16  C   UNL     1       8.879  35.484  62.151  0.00  0.00    +0.000 A 
ATOM     17  O   UNL     1      10.205  35.552  62.593  0.00  0.00    +0.000 OA
ATOM     18  C   UNL     1       8.016  34.489  62.593  0.00  0.00    +0.000 A 
ENDBRANCH  10  11
ENDBRANCH   3   9
BRANCH   5  19
ATOM     19  O   UNL     1       5.841  31.976  67.937  0.00  0.00    +0.000 OA
ATOM     20  C   UNL     1       7.262  31.888  67.886  0.00  0.00    +0.000 C 
ENDBRANCH   5  19
TORSDOF 4
ENDMDL
MODEL 9
REMARK VINA RESULT:       0.0     45.171     46.917
REMARK  Name = 
REMARK  4 active torsions:
REMARK  status: ('A' for Active; 'I' for Inactive)
REMARK    1  A    between atoms: O_2  and  C_3
REMARK    2  A    between atoms: C_5  and  C_6
REMARK    3  A    between atoms: C_7  and  C_8
REMARK    4  A    between atoms: C_17  and  O_18
REMARK                            x       y       z     vdW  Elec       q    Type
REMARK                         _______ _______ _______ _____ _____    ______ ____
ROOT
ATOM      1  C   UNL     1      18.468   4.071  75.113  0.00  0.00    +0.000 A 
ATOM      2  C   UNL     1      19.258   3.816  76.227  0.00  0.00    +0.000 A 
ATOM      3  C   UNL     1      19.025   2.726  77.058  0.00  0.00    +0.000 A 
ATOM      4  C   UNL     1      18.000   1.871  76.676  0.00  0.00    +0.000 A 
ATOM      5  C   UNL     1      17.285   2.018  75.516  0.00  0.00    +0.000 A 
ATOM      6  C   UNL     1      17.489   3.156  74.747  0.00  0.00    +0.000 A 
ENDROOT
BRANCH   1   8
ATOM      7  C   UNL     1      20.246   5.093  73.887  0.00  0.00    +0.000 C 
ATOM      8  O   UNL     1      18.844   4.993  74.132  0.00  0.00    +0.000 OA
ENDBRANCH   1   8
BRANCH   3   9
ATOM      9  C   UNL     1      20.222   2.159  77.693  0.00  0.00    +0.000 C 
ATOM     10  C   UNL     1      20.614   2.746  78.811  0.00  0.00    +0.000 C 
BRANCH  10  11
ATOM     11  C   UNL     1      19.583   2.934  79.840  0.00  0.00    +0.000 A 
ATOM     12  C   UNL     1      19.463   4.201  80.402  0.00  0.00    +0.000 A 
ATOM     13  C   UNL     1      19.277   4.382  81.767  0.00  0.00    +0.000 A 
ATOM     14  C   UNL     1      19.031   3.285  82.583  0.00  0.00    +0.000 A 
ATOM     15  O   UNL     1      19.373   3.254  83.927  0.00  0.00    +0.000 OA
ATOM     16  C   UNL     1      18.811   2.058  81.969  0.00  0.00    +0.000 A 
ATOM     17  O   UNL     1      17.965   1.166  82.637  0.00  0.00    +0.000 OA
ATOM     18  C   UNL     1      19.143   1.881  80.631  0.00  0.00    +0.000 A 
ENDBRANCH  10  11
ENDBRANCH   3   9
BRANCH   5  19
ATOM     19  O   UNL     1      16.415   1.058  75.013  0.00  0.00    +0.000 OA
ATOM     20  C   UNL     1      15.922   0.099  75.945  0.00  0.00    +0.000 C 
ENDBRANCH   5  19
TORSDOF 4
ENDMDL
MODEL 10
REMARK VINA RESULT:       0.0     31.665     33.203
REMARK  Name = 
REMARK  4 active torsions:
REMARK  status: ('A' for Active; 'I' for Inactive)
REMARK    1  A    between atoms: O_2  and  C_3
REMARK    2  A    between atoms: C_5  and  C_6
REMARK    3  A    between atoms: C_7  and  C_8
REMARK    4  A    between atoms: C_17  and  O_18
REMARK                            x       y       z     vdW  Elec       q    Type
REMARK                         _______ _______ _______ _____ _____    ______ ____
ROOT
ATOM      1  C   UNL     1      18.073  15.222  59.291  0.00  0.00    +0.000 A 
ATOM      2  C   UNL     1      19.169  16.073  59.240  0.00  0.00    +0.000 A 
ATOM      3  C   UNL     1      19.272  17.187  60.065  0.00  0.00    +0.000 A 
ATOM      4  C   UNL     1      18.250  17.365  60.986  0.00  0.00    +0.000 A 
ATOM      5  C   UNL     1      17.219  16.478  61.154  0.00  0.00    +0.000 A 
ATOM      6  C   UNL     1      17.102  15.416  60.265  0.00  0.00    +0.000 A 
ENDROOT
BRANCH   1   8
ATOM      7  C   UNL     1      19.352  13.499  58.241  0.00  0.00    +0.000 C 
ATOM      8  O   UNL     1      18.076  13.970  58.668  0.00  0.00    +0.000 OA
ENDBRANCH   1   8
BRANCH   3   9
ATOM      9  C   UNL     1      20.642  17.557  60.446  0.00  0.00    +0.000 C 
ATOM     10  C   UNL     1      21.283  18.345  59.600  0.00  0.00    +0.000 C 
BRANCH  10  11
ATOM     11  C   UNL     1      20.570  19.560  59.179  0.00  0.00    +0.000 A 
ATOM     12  C   UNL     1      20.487  19.813  57.814  0.00  0.00    +0.000 A 
ATOM     13  C   UNL     1      20.676  21.087  57.292  0.00  0.00    +0.000 A 
ATOM     14  C   UNL     1      20.782  22.176  58.149  0.00  0.00    +0.000 A 
ATOM     15  O   UNL     1      21.490  23.323  57.824  0.00  0.00    +0.000 OA
ATOM     16  C   UNL     1      20.522  21.966  59.498  0.00  0.00    +0.000 A 
ATOM     17  O   UNL     1      19.992  23.048  60.209  0.00  0.00    +0.000 OA
ATOM     18  C   UNL     1      20.478  20.673  60.005  0.00  0.00    +0.000 A 
ENDBRANCH  10  11
ENDBRANCH   3   9
BRANCH   5  19
ATOM     19  O   UNL     1      16.316  16.525  62.209  0.00  0.00    +0.000 OA
ATOM     20  C   UNL     1      16.243  17.755  62.926  0.00  0.00    +0.000 C 
ENDBRANCH   5  19
TORSDOF 4
ENDMDL
