REMARK  Name = 
REMARK  6 active torsions:
REMARK  status: ('A' for Active; 'I' for Inactive)
REMARK    1  A    between atoms: O_2  and  C_3
REMARK    2  A    between atoms: C_5  and  C_6
REMARK    3  A    between atoms: C_7  and  C_8
REMARK    4  A    between atoms: C_11  and  O_12
REMARK    5  A    between atoms: C_14  and  O_15
REMARK    6  A    between atoms: C_19  and  O_20
REMARK                            x       y       z     vdW  Elec       q    Type
REMARK                         _______ _______ _______ _____ _____    ______ ____
ROOT
ATOM      1  C   UNL     1      -0.558   1.681   1.661  0.00  0.00    +0.000 C 
ATOM      2  C   UNL     1       0.626   1.098   1.856  0.00  0.00    +0.000 C 
ENDROOT
BRANCH   1   5
ATOM      3  C   UNL     1      -2.786  -1.090   0.612  0.00  0.00    +0.000 A 
ATOM      4  C   UNL     1      -1.868  -0.319   1.313  0.00  0.00    +0.000 A 
ATOM      5  C   UNL     1      -1.476   0.917   0.807  0.00  0.00    +0.000 A 
ATOM      6  C   UNL     1      -2.500   1.647   0.212  0.00  0.00    +0.000 A 
ATOM      7  C   UNL     1      -3.652   0.997  -0.213  0.00  0.00    +0.000 A 
ATOM      8  C   UNL     1      -3.620  -0.391  -0.253  0.00  0.00    +0.000 A 
BRANCH   3  10
ATOM      9  C   UNL     1      -3.550  -3.380   0.093  0.00  0.00    +0.000 C 
ATOM     10  O   UNL     1      -2.577  -2.462   0.506  0.00  0.00    +0.000 OA
ENDBRANCH   3  10
BRANCH   7  11
ATOM     11  O   UNL     1      -4.785   1.730  -0.561  0.00  0.00    +0.000 OA
ATOM     12  C   UNL     1      -5.936   1.048  -0.995  0.00  0.00    +0.000 C 
ENDBRANCH   7  11
ENDBRANCH   1   5
BRANCH   2  13
ATOM     13  C   UNL     1       1.368   0.773   0.637  0.00  0.00    +0.000 A 
ATOM     14  C   UNL     1       1.025  -0.224  -0.233  0.00  0.00    +0.000 A 
ATOM     15  C   UNL     1       1.973  -1.039  -0.815  0.00  0.00    +0.000 A 
ATOM     16  C   UNL     1       3.325  -0.846  -0.586  0.00  0.00    +0.000 A 
ATOM     17  C   UNL     1       3.682   0.338   0.044  0.00  0.00    +0.000 A 
ATOM     18  C   UNL     1       2.711   1.133   0.645  0.00  0.00    +0.000 A 
BRANCH  16  19
ATOM     19  O   UNL     1       4.296  -1.672  -1.162  0.00  0.00    +0.000 OA
ATOM     20  C   UNL     1       4.353  -3.063  -0.880  0.00  0.00    +0.000 C 
ENDBRANCH  16  19
BRANCH  17  21
ATOM     21  O   UNL     1       4.955   0.878  -0.158  0.00  0.00    +0.000 OA
ATOM     22  C   UNL     1       4.994   2.246  -0.521  0.00  0.00    +0.000 C 
ENDBRANCH  17  21
ENDBRANCH   2  13
TORSDOF 6
