MODEL 1
REMARK VINA RESULT:      -0.0      0.000      0.000
REMARK  Name = 
REMARK  6 active torsions:
REMARK  status: ('A' for Active; 'I' for Inactive)
REMARK    1  A    between atoms: O_2  and  C_3
REMARK    2  A    between atoms: C_5  and  C_6
REMARK    3  A    between atoms: C_7  and  C_8
REMARK    4  A    between atoms: C_11  and  O_12
REMARK    5  A    between atoms: C_14  and  O_15
REMARK    6  A    between atoms: C_19  and  O_20
REMARK                            x       y       z     vdW  Elec       q    Type
REMARK                         _______ _______ _______ _____ _____    ______ ____
ROOT
ATOM      1  C   UNL     1       4.532  26.731  76.467  0.00  0.00    +0.000 C 
ATOM      2  C   UNL     1       3.975  25.652  75.915  0.00  0.00    +0.000 C 
ENDROOT
BRANCH   1   5
ATOM      3  C   UNL     1       5.300  29.177  73.789  0.00  0.00    +0.000 A 
ATOM      4  C   UNL     1       4.625  28.331  74.659  0.00  0.00    +0.000 A 
ATOM      5  C   UNL     1       5.345  27.533  75.543  0.00  0.00    +0.000 A 
ATOM      6  C   UNL     1       6.461  28.150  76.098  0.00  0.00    +0.000 A 
ATOM      7  C   UNL     1       7.015  29.261  75.473  0.00  0.00    +0.000 A 
ATOM      8  C   UNL     1       6.579  29.550  74.187  0.00  0.00    +0.000 A 
BRANCH   3  10
ATOM      9  C   UNL     1       4.673  28.187  71.615  0.00  0.00    +0.000 C 
ATOM     10  O   UNL     1       4.866  29.278  72.470  0.00  0.00    +0.000 OA
ENDBRANCH   3  10
BRANCH   7  11
ATOM     11  O   UNL     1       7.953  30.047  76.140  0.00  0.00    +0.000 OA
ATOM     12  C   UNL     1       8.483  29.594  77.361  0.00  0.00    +0.000 C 
ENDBRANCH   7  11
ENDBRANCH   1   5
BRANCH   2  13
ATOM     13  C   UNL     1       4.911  24.726  75.275  0.00  0.00    +0.000 A 
ATOM     14  C   UNL     1       6.084  24.303  75.837  0.00  0.00    +0.000 A 
ATOM     15  C   UNL     1       7.239  24.171  75.096  0.00  0.00    +0.000 A 
ATOM     16  C   UNL     1       7.248  24.408  73.732  0.00  0.00    +0.000 A 
ATOM     17  C   UNL     1       6.010  24.538  73.118  0.00  0.00    +0.000 A 
ATOM     18  C   UNL     1       4.860  24.694  73.886  0.00  0.00    +0.000 A 
BRANCH  16  19
ATOM     19  O   UNL     1       8.416  24.288  72.970  0.00  0.00    +0.000 OA
ATOM     20  C   UNL     1       9.087  23.044  72.828  0.00  0.00    +0.000 C 
ENDBRANCH  16  19
BRANCH  17  21
ATOM     21  O   UNL     1       5.870  24.237  71.761  0.00  0.00    +0.000 OA
ATOM     22  C   UNL     1       5.469  22.913  71.462  0.00  0.00    +0.000 C 
ENDBRANCH  17  21
ENDBRANCH   2  13
TORSDOF 6
ENDMDL
MODEL 2
REMARK VINA RESULT:      -0.0     13.268     15.819
REMARK  Name = 
REMARK  6 active torsions:
REMARK  status: ('A' for Active; 'I' for Inactive)
REMARK    1  A    between atoms: O_2  and  C_3
REMARK    2  A    between atoms: C_5  and  C_6
REMARK    3  A    between atoms: C_7  and  C_8
REMARK    4  A    between atoms: C_11  and  O_12
REMARK    5  A    between atoms: C_14  and  O_15
REMARK    6  A    between atoms: C_19  and  O_20
REMARK                            x       y       z     vdW  Elec       q    Type
REMARK                         _______ _______ _______ _____ _____    ______ ____
ROOT
ATOM      1  C   UNL     1       9.519  12.199  82.792  0.00  0.00    +0.000 C 
ATOM      2  C   UNL     1      10.329  11.428  82.063  0.00  0.00    +0.000 C 
ENDROOT
BRANCH   1   5
ATOM      3  C   UNL     1       6.026  11.597  81.708  0.00  0.00    +0.000 A 
ATOM      4  C   UNL     1       7.307  11.419  82.213  0.00  0.00    +0.000 A 
ATOM      5  C   UNL     1       8.218  12.470  82.168  0.00  0.00    +0.000 A 
ATOM      6  C   UNL     1       7.669  13.721  82.432  0.00  0.00    +0.000 A 
ATOM      7  C   UNL     1       6.299  13.913  82.298  0.00  0.00    +0.000 A 
ATOM      8  C   UNL     1       5.576  12.912  81.663  0.00  0.00    +0.000 A 
BRANCH   3  10
ATOM      9  C   UNL     1       6.048   9.991  79.833  0.00  0.00    +0.000 C 
ATOM     10  O   UNL     1       5.448  10.582  80.952  0.00  0.00    +0.000 OA
ENDBRANCH   3  10
BRANCH   7  11
ATOM     11  O   UNL     1       5.698  15.063  82.807  0.00  0.00    +0.000 OA
ATOM     12  C   UNL     1       6.510  16.119  83.258  0.00  0.00    +0.000 C 
ENDBRANCH   7  11
ENDBRANCH   1   5
BRANCH   2  13
ATOM     13  C   UNL     1      10.611  11.921  80.715  0.00  0.00    +0.000 A 
ATOM     14  C   UNL     1      10.951  13.212  80.420  0.00  0.00    +0.000 A 
ATOM     15  C   UNL     1      10.453  13.859  79.309  0.00  0.00    +0.000 A 
ATOM     16  C   UNL     1       9.628  13.209  78.408  0.00  0.00    +0.000 A 
ATOM     17  C   UNL     1       9.532  11.830  78.542  0.00  0.00    +0.000 A 
ATOM     18  C   UNL     1      10.020  11.201  79.683  0.00  0.00    +0.000 A 
BRANCH  16  19
ATOM     19  O   UNL     1       9.108  13.857  77.282  0.00  0.00    +0.000 OA
ATOM     20  C   UNL     1       9.952  14.359  76.256  0.00  0.00    +0.000 C 
ENDBRANCH  16  19
BRANCH  17  21
ATOM     21  O   UNL     1       9.207  11.044  77.433  0.00  0.00    +0.000 OA
ATOM     22  C   UNL     1      10.303  10.527  76.702  0.00  0.00    +0.000 C 
ENDBRANCH  17  21
ENDBRANCH   2  13
TORSDOF 6
ENDMDL
MODEL 3
REMARK VINA RESULT:      -0.0     10.596     12.774
REMARK  Name = 
REMARK  6 active torsions:
REMARK  status: ('A' for Active; 'I' for Inactive)
REMARK    1  A    between atoms: O_2  and  C_3
REMARK    2  A    between atoms: C_5  and  C_6
REMARK    3  A    between atoms: C_7  and  C_8
REMARK    4  A    between atoms: C_11  and  O_12
REMARK    5  A    between atoms: C_14  and  O_15
REMARK    6  A    between atoms: C_19  and  O_20
REMARK                            x       y       z     vdW  Elec       q    Type
REMARK                         _______ _______ _______ _____ _____    ______ ____
ROOT
ATOM      1  C   UNL     1       2.531  15.789  74.997  0.00  0.00    +0.000 C 
ATOM      2  C   UNL     1       1.847  16.245  73.947  0.00  0.00    +0.000 C 
ENDROOT
BRANCH   1   5
ATOM      3  C   UNL     1       6.145  15.829  74.170  0.00  0.00    +0.000 A 
ATOM      4  C   UNL     1       4.838  16.224  74.424  0.00  0.00    +0.000 A 
ATOM      5  C   UNL     1       3.862  15.262  74.671  0.00  0.00    +0.000 A 
ATOM      6  C   UNL     1       4.295  14.187  75.441  0.00  0.00    +0.000 A 
ATOM      7  C   UNL     1       5.654  13.917  75.545  0.00  0.00    +0.000 A 
ATOM      8  C   UNL     1       6.502  14.582  74.668  0.00  0.00    +0.000 A 
BRANCH   3  10
ATOM      9  C   UNL     1       6.411  16.609  71.843  0.00  0.00    +0.000 C 
ATOM     10  O   UNL     1       6.861  16.466  73.161  0.00  0.00    +0.000 OA
ENDBRANCH   3  10
BRANCH   7  11
ATOM     11  O   UNL     1       6.122  13.027  76.509  0.00  0.00    +0.000 OA
ATOM     12  C   UNL     1       5.198  12.254  77.235  0.00  0.00    +0.000 C 
ENDBRANCH   7  11
ENDBRANCH   1   5
BRANCH   2  13
ATOM     13  C   UNL     1       1.656  15.281  72.862  0.00  0.00    +0.000 A 
ATOM     14  C   UNL     1       1.258  13.986  73.041  0.00  0.00    +0.000 A 
ATOM     15  C   UNL     1       1.810  12.949  72.319  0.00  0.00    +0.000 A 
ATOM     16  C   UNL     1       2.757  13.182  71.336  0.00  0.00    +0.000 A 
ATOM     17  C   UNL     1       2.933  14.503  70.949  0.00  0.00    +0.000 A 
ATOM     18  C   UNL     1       2.387  15.535  71.707  0.00  0.00    +0.000 A 
BRANCH  16  19
ATOM     19  O   UNL     1       3.332  12.139  70.603  0.00  0.00    +0.000 OA
ATOM     20  C   UNL     1       2.555  11.313  69.746  0.00  0.00    +0.000 C 
ENDBRANCH  16  19
BRANCH  17  21
ATOM     21  O   UNL     1       3.410  14.797  69.669  0.00  0.00    +0.000 OA
ATOM     22  C   UNL     1       2.423  15.018  68.678  0.00  0.00    +0.000 C 
ENDBRANCH  17  21
ENDBRANCH   2  13
TORSDOF 6
ENDMDL
MODEL 4
REMARK VINA RESULT:      -0.0     23.127     26.275
REMARK  Name = 
REMARK  6 active torsions:
REMARK  status: ('A' for Active; 'I' for Inactive)
REMARK    1  A    between atoms: O_2  and  C_3
REMARK    2  A    between atoms: C_5  and  C_6
REMARK    3  A    between atoms: C_7  and  C_8
REMARK    4  A    between atoms: C_11  and  O_12
REMARK    5  A    between atoms: C_14  and  O_15
REMARK    6  A    between atoms: C_19  and  O_20
REMARK                            x       y       z     vdW  Elec       q    Type
REMARK                         _______ _______ _______ _____ _____    ______ ____
ROOT
ATOM      1  C   UNL     1       5.226  23.945  47.403  0.00  0.00    +0.000 C 
ATOM      2  C   UNL     1       5.916  23.495  46.353  0.00  0.00    +0.000 C 
ENDROOT
BRANCH   1   5
ATOM      3  C   UNL     1       7.573  24.509  50.217  0.00  0.00    +0.000 A 
ATOM      4  C   UNL     1       6.930  24.593  48.989  0.00  0.00    +0.000 A 
ATOM      5  C   UNL     1       5.882  23.725  48.698  0.00  0.00    +0.000 A 
ATOM      6  C   UNL     1       5.034  23.465  49.770  0.00  0.00    +0.000 A 
ATOM      7  C   UNL     1       5.474  23.697  51.068  0.00  0.00    +0.000 A 
ATOM      8  C   UNL     1       6.831  23.938  51.245  0.00  0.00    +0.000 A 
BRANCH   3  10
ATOM      9  C   UNL     1       9.838  23.840  49.500  0.00  0.00    +0.000 C 
ATOM     10  O   UNL     1       8.960  24.616  50.265  0.00  0.00    +0.000 OA
ENDBRANCH   3  10
BRANCH   7  11
ATOM     11  O   UNL     1       4.569  23.701  52.127  0.00  0.00    +0.000 OA
ATOM     12  C   UNL     1       3.247  23.276  51.900  0.00  0.00    +0.000 C 
ENDBRANCH   7  11
ENDBRANCH   1   5
BRANCH   2  13
ATOM     13  C   UNL     1       6.267  22.075  46.403  0.00  0.00    +0.000 A 
ATOM     14  C   UNL     1       5.399  21.076  46.744  0.00  0.00    +0.000 A 
ATOM     15  C   UNL     1       5.785  20.018  47.540  0.00  0.00    +0.000 A 
ATOM     16  C   UNL     1       7.091  19.891  47.983  0.00  0.00    +0.000 A 
ATOM     17  C   UNL     1       8.028  20.728  47.393  0.00  0.00    +0.000 A 
ATOM     18  C   UNL     1       7.615  21.804  46.614  0.00  0.00    +0.000 A 
BRANCH  16  19
ATOM     19  O   UNL     1       7.493  18.828  48.799  0.00  0.00    +0.000 OA
ATOM     20  C   UNL     1       7.443  17.482  48.347  0.00  0.00    +0.000 C 
ENDBRANCH  16  19
BRANCH  17  21
ATOM     21  O   UNL     1       9.370  20.343  47.342  0.00  0.00    +0.000 OA
ATOM     22  C   UNL     1       9.774  19.669  46.165  0.00  0.00    +0.000 C 
ENDBRANCH  17  21
ENDBRANCH   2  13
TORSDOF 6
ENDMDL
MODEL 5
REMARK VINA RESULT:      -0.0     33.642     36.801
REMARK  Name = 
REMARK  6 active torsions:
REMARK  status: ('A' for Active; 'I' for Inactive)
REMARK    1  A    between atoms: O_2  and  C_3
REMARK    2  A    between atoms: C_5  and  C_6
REMARK    3  A    between atoms: C_7  and  C_8
REMARK    4  A    between atoms: C_11  and  O_12
REMARK    5  A    between atoms: C_14  and  O_15
REMARK    6  A    between atoms: C_19  and  O_20
REMARK                            x       y       z     vdW  Elec       q    Type
REMARK                         _______ _______ _______ _____ _____    ______ ____
ROOT
ATOM      1  C   UNL     1     -11.988  18.816  43.905  0.00  0.00    +0.000 C 
ATOM      2  C   UNL     1     -12.489  19.837  43.207  0.00  0.00    +0.000 C 
ENDROOT
BRANCH   1   5
ATOM      3  C   UNL     1     -14.674  16.324  44.466  0.00  0.00    +0.000 A 
ATOM      4  C   UNL     1     -13.744  17.157  43.859  0.00  0.00    +0.000 A 
ATOM      5  C   UNL     1     -12.992  18.033  44.637  0.00  0.00    +0.000 A 
ATOM      6  C   UNL     1     -12.580  17.510  45.858  0.00  0.00    +0.000 A 
ATOM      7  C   UNL     1     -13.242  16.414  46.396  0.00  0.00    +0.000 A 
ATOM      8  C   UNL     1     -14.447  16.048  45.809  0.00  0.00    +0.000 A 
BRANCH   3  10
ATOM      9  C   UNL     1     -16.767  17.187  43.480  0.00  0.00    +0.000 C 
ATOM     10  O   UNL     1     -15.916  16.143  43.864  0.00  0.00    +0.000 OA
ENDBRANCH   3  10
BRANCH   7  11
ATOM     11  O   UNL     1     -12.690  15.716  47.469  0.00  0.00    +0.000 OA
ATOM     12  C   UNL     1     -11.588  16.264  48.149  0.00  0.00    +0.000 C 
ENDBRANCH   7  11
ENDBRANCH   1   5
BRANCH   2  13
ATOM     13  C   UNL     1     -13.277  20.795  43.983  0.00  0.00    +0.000 A 
ATOM     14  C   UNL     1     -12.894  21.312  45.190  0.00  0.00    +0.000 A 
ATOM     15  C   UNL     1     -13.791  21.488  46.223  0.00  0.00    +0.000 A 
ATOM     16  C   UNL     1     -15.136  21.201  46.063  0.00  0.00    +0.000 A 
ATOM     17  C   UNL     1     -15.569  20.970  44.765  0.00  0.00    +0.000 A 
ATOM     18  C   UNL     1     -14.647  20.772  43.743  0.00  0.00    +0.000 A 
BRANCH  16  19
ATOM     19  O   UNL     1     -16.054  21.366  47.106  0.00  0.00    +0.000 OA
ATOM     20  C   UNL     1     -16.323  22.643  47.667  0.00  0.00    +0.000 C 
ENDBRANCH  16  19
BRANCH  17  21
ATOM     21  O   UNL     1     -16.903  21.211  44.423  0.00  0.00    +0.000 OA
ATOM     22  C   UNL     1     -17.182  22.495  43.896  0.00  0.00    +0.000 C 
ENDBRANCH  17  21
ENDBRANCH   2  13
TORSDOF 6
ENDMDL
MODEL 6
REMARK VINA RESULT:      -0.0      9.720     12.673
REMARK  Name = 
REMARK  6 active torsions:
REMARK  status: ('A' for Active; 'I' for Inactive)
REMARK    1  A    between atoms: O_2  and  C_3
REMARK    2  A    between atoms: C_5  and  C_6
REMARK    3  A    between atoms: C_7  and  C_8
REMARK    4  A    between atoms: C_11  and  O_12
REMARK    5  A    between atoms: C_14  and  O_15
REMARK    6  A    between atoms: C_19  and  O_20
REMARK                            x       y       z     vdW  Elec       q    Type
REMARK                         _______ _______ _______ _____ _____    ______ ____
ROOT
ATOM      1  C   UNL     1      11.079  17.356  67.100  0.00  0.00    +0.000 C 
ATOM      2  C   UNL     1      12.290  16.881  67.398  0.00  0.00    +0.000 C 
ENDROOT
BRANCH   1   5
ATOM      3  C   UNL     1      11.408  19.825  64.355  0.00  0.00    +0.000 A 
ATOM      4  C   UNL     1      11.433  18.646  65.089  0.00  0.00    +0.000 A 
ATOM      5  C   UNL     1      11.088  18.666  66.437  0.00  0.00    +0.000 A 
ATOM      6  C   UNL     1      10.028  19.511  66.748  0.00  0.00    +0.000 A 
ATOM      7  C   UNL     1       9.684  20.534  65.874  0.00  0.00    +0.000 A 
ATOM      8  C   UNL     1      10.577  20.823  64.850  0.00  0.00    +0.000 A 
BRANCH   3  10
ATOM      9  C   UNL     1      13.800  20.060  63.788  0.00  0.00    +0.000 C 
ATOM     10  O   UNL     1      12.440  20.086  63.458  0.00  0.00    +0.000 OA
ENDBRANCH   3  10
BRANCH   7  11
ATOM     11  O   UNL     1       8.477  21.215  66.029  0.00  0.00    +0.000 OA
ATOM     12  C   UNL     1       7.727  21.021  67.203  0.00  0.00    +0.000 C 
ENDBRANCH   7  11
ENDBRANCH   1   5
BRANCH   2  13
ATOM     13  C   UNL     1      13.116  17.759  68.227  0.00  0.00    +0.000 A 
ATOM     14  C   UNL     1      12.674  18.402  69.349  0.00  0.00    +0.000 A 
ATOM     15  C   UNL     1      13.038  19.701  69.634  0.00  0.00    +0.000 A 
ATOM     16  C   UNL     1      13.916  20.396  68.820  0.00  0.00    +0.000 A 
ATOM     17  C   UNL     1      14.593  19.652  67.863  0.00  0.00    +0.000 A 
ATOM     18  C   UNL     1      14.193  18.350  67.576  0.00  0.00    +0.000 A 
BRANCH  16  19
ATOM     19  O   UNL     1      14.285  21.718  69.092  0.00  0.00    +0.000 OA
ATOM     20  C   UNL     1      14.996  22.065  70.272  0.00  0.00    +0.000 C 
ENDBRANCH  16  19
BRANCH  17  21
ATOM     21  O   UNL     1      15.832  20.089  67.389  0.00  0.00    +0.000 OA
ATOM     22  C   UNL     1      16.967  19.573  68.061  0.00  0.00    +0.000 C 
ENDBRANCH  17  21
ENDBRANCH   2  13
TORSDOF 6
ENDMDL
MODEL 7
REMARK VINA RESULT:      -0.0     17.066     19.684
REMARK  Name = 
REMARK  6 active torsions:
REMARK  status: ('A' for Active; 'I' for Inactive)
REMARK    1  A    between atoms: O_2  and  C_3
REMARK    2  A    between atoms: C_5  and  C_6
REMARK    3  A    between atoms: C_7  and  C_8
REMARK    4  A    between atoms: C_11  and  O_12
REMARK    5  A    between atoms: C_14  and  O_15
REMARK    6  A    between atoms: C_19  and  O_20
REMARK                            x       y       z     vdW  Elec       q    Type
REMARK                         _______ _______ _______ _____ _____    ______ ____
ROOT
ATOM      1  C   UNL     1      -0.151  30.358  54.547  0.00  0.00    +0.000 C 
ATOM      2  C   UNL     1      -0.286  29.391  53.638  0.00  0.00    +0.000 C 
ENDROOT
BRANCH   1   5
ATOM      3  C   UNL     1       3.454  30.944  55.185  0.00  0.00    +0.000 A 
ATOM      4  C   UNL     1       2.213  30.859  54.568  0.00  0.00    +0.000 A 
ATOM      5  C   UNL     1       1.129  30.337  55.267  0.00  0.00    +0.000 A 
ATOM      6  C   UNL     1       1.076  30.706  56.608  0.00  0.00    +0.000 A 
ATOM      7  C   UNL     1       2.225  31.162  57.242  0.00  0.00    +0.000 A 
ATOM      8  C   UNL     1       3.431  30.987  56.574  0.00  0.00    +0.000 A 
BRANCH   3  10
ATOM      9  C   UNL     1       4.804  29.350  53.869  0.00  0.00    +0.000 C 
ATOM     10  O   UNL     1       4.594  30.599  54.465  0.00  0.00    +0.000 OA
ENDBRANCH   3  10
BRANCH   7  11
ATOM     11  O   UNL     1       2.142  31.782  58.487  0.00  0.00    +0.000 OA
ATOM     12  C   UNL     1       0.974  31.624  59.255  0.00  0.00    +0.000 C 
ENDBRANCH   7  11
ENDBRANCH   1   5
BRANCH   2  13
ATOM     13  C   UNL     1      -0.121  28.030  54.148  0.00  0.00    +0.000 A 
ATOM     14  C   UNL     1      -0.727  27.548  55.275  0.00  0.00    +0.000 A 
ATOM     15  C   UNL     1      -0.063  26.730  56.164  0.00  0.00    +0.000 A 
ATOM     16  C   UNL     1       1.236  26.313  55.925  0.00  0.00    +0.000 A 
ATOM     17  C   UNL     1       1.736  26.549  54.653  0.00  0.00    +0.000 A 
ATOM     18  C   UNL     1       1.061  27.397  53.780  0.00  0.00    +0.000 A 
BRANCH  16  19
ATOM     19  O   UNL     1       1.924  25.492  56.825  0.00  0.00    +0.000 OA
ATOM     20  C   UNL     1       1.481  24.175  57.120  0.00  0.00    +0.000 C 
ENDBRANCH  16  19
BRANCH  17  21
ATOM     21  O   UNL     1       2.750  25.735  54.141  0.00  0.00    +0.000 OA
ATOM     22  C   UNL     1       2.322  24.629  53.368  0.00  0.00    +0.000 C 
ENDBRANCH  17  21
ENDBRANCH   2  13
TORSDOF 6
ENDMDL
MODEL 8
REMARK VINA RESULT:       0.0     30.109     32.405
REMARK  Name = 
REMARK  6 active torsions:
REMARK  status: ('A' for Active; 'I' for Inactive)
REMARK    1  A    between atoms: O_2  and  C_3
REMARK    2  A    between atoms: C_5  and  C_6
REMARK    3  A    between atoms: C_7  and  C_8
REMARK    4  A    between atoms: C_11  and  O_12
REMARK    5  A    between atoms: C_14  and  O_15
REMARK    6  A    between atoms: C_19  and  O_20
REMARK                            x       y       z     vdW  Elec       q    Type
REMARK                         _______ _______ _______ _____ _____    ______ ____
ROOT
ATOM      1  C   UNL     1      11.297  34.867  45.654  0.00  0.00    +0.000 C 
ATOM      2  C   UNL     1      10.687  35.775  46.417  0.00  0.00    +0.000 C 
ENDROOT
BRANCH   1   5
ATOM      3  C   UNL     1      14.968  35.330  45.877  0.00  0.00    +0.000 A 
ATOM      4  C   UNL     1      13.643  35.067  46.197  0.00  0.00    +0.000 A 
ATOM      5  C   UNL     1      12.653  35.242  45.233  0.00  0.00    +0.000 A 
ATOM      6  C   UNL     1      13.022  34.848  43.951  0.00  0.00    +0.000 A 
ATOM      7  C   UNL     1      14.367  34.730  43.627  0.00  0.00    +0.000 A 
ATOM      8  C   UNL     1      15.286  35.256  44.526  0.00  0.00    +0.000 A 
BRANCH   3  10
ATOM      9  C   UNL     1      15.458  37.252  47.349  0.00  0.00    +0.000 C 
ATOM     10  O   UNL     1      15.767  36.002  46.799  0.00  0.00    +0.000 OA
ENDBRANCH   3  10
BRANCH   7  11
ATOM     11  O   UNL     1      14.754  34.088  42.451  0.00  0.00    +0.000 OA
ATOM     12  C   UNL     1      13.800  33.882  41.438  0.00  0.00    +0.000 C 
ENDBRANCH   7  11
ENDBRANCH   1   5
BRANCH   2  13
ATOM     13  C   UNL     1      10.584  37.113  45.831  0.00  0.00    +0.000 A 
ATOM     14  C   UNL     1      10.160  37.367  44.557  0.00  0.00    +0.000 A 
ATOM     15  C   UNL     1      10.765  38.322  43.766  0.00  0.00    +0.000 A 
ATOM     16  C   UNL     1      11.797  39.107  44.250  0.00  0.00    +0.000 A 
ATOM     17  C   UNL     1      12.019  39.060  45.620  0.00  0.00    +0.000 A 
ATOM     18  C   UNL     1      11.417  38.073  46.394  0.00  0.00    +0.000 A 
BRANCH  16  19
ATOM     19  O   UNL     1      12.426  40.072  43.455  0.00  0.00    +0.000 OA
ATOM     20  C   UNL     1      11.717  41.191  42.943  0.00  0.00    +0.000 C 
ENDBRANCH  16  19
BRANCH  17  21
ATOM     21  O   UNL     1      12.611  40.148  46.267  0.00  0.00    +0.000 OA
ATOM     22  C   UNL     1      11.718  41.109  46.800  0.00  0.00    +0.000 C 
ENDBRANCH  17  21
ENDBRANCH   2  13
TORSDOF 6
ENDMDL
MODEL 9
REMARK VINA RESULT:       0.0      9.569     12.610
REMARK  Name = 
REMARK  6 active torsions:
REMARK  status: ('A' for Active; 'I' for Inactive)
REMARK    1  A    between atoms: O_2  and  C_3
REMARK    2  A    between atoms: C_5  and  C_6
REMARK    3  A    between atoms: C_7  and  C_8
REMARK    4  A    between atoms: C_11  and  O_12
REMARK    5  A    between atoms: C_14  and  O_15
REMARK    6  A    between atoms: C_19  and  O_20
REMARK                            x       y       z     vdW  Elec       q    Type
REMARK                         _______ _______ _______ _____ _____    ______ ____
ROOT
ATOM      1  C   UNL     1      15.754  22.848  69.982  0.00  0.00    +0.000 C 
ATOM      2  C   UNL     1      15.259  24.080  69.855  0.00  0.00    +0.000 C 
ENDROOT
BRANCH   1   5
ATOM      3  C   UNL     1      15.573  21.836  73.544  0.00  0.00    +0.000 A 
ATOM      4  C   UNL     1      15.227  22.223  72.256  0.00  0.00    +0.000 A 
ATOM      5  C   UNL     1      16.226  22.521  71.333  0.00  0.00    +0.000 A 
ATOM      6  C   UNL     1      17.341  21.691  71.402  0.00  0.00    +0.000 A 
ATOM      7  C   UNL     1      17.586  20.961  72.559  0.00  0.00    +0.000 A 
ATOM      8  C   UNL     1      16.843  21.290  73.686  0.00  0.00    +0.000 A 
BRANCH   3  10
ATOM      9  C   UNL     1      14.643  23.710  74.856  0.00  0.00    +0.000 C 
ATOM     10  O   UNL     1      14.852  22.346  74.620  0.00  0.00    +0.000 OA
ENDBRANCH   3  10
BRANCH   7  11
ATOM     11  O   UNL     1      18.529  19.935  72.556  0.00  0.00    +0.000 OA
ATOM     12  C   UNL     1      19.551  19.946  71.590  0.00  0.00    +0.000 C 
ENDBRANCH   7  11
ENDBRANCH   1   5
BRANCH   2  13
ATOM     13  C   UNL     1      16.166  25.159  70.250  0.00  0.00    +0.000 A 
ATOM     14  C   UNL     1      17.473  25.250  69.860  0.00  0.00    +0.000 A 
ATOM     15  C   UNL     1      18.464  25.654  70.730  0.00  0.00    +0.000 A 
ATOM     16  C   UNL     1      18.169  26.042  72.026  0.00  0.00    +0.000 A 
ATOM     17  C   UNL     1      16.827  26.239  72.321  0.00  0.00    +0.000 A 
ATOM     18  C   UNL     1      15.843  25.801  71.440  0.00  0.00    +0.000 A 
BRANCH  16  19
ATOM     19  O   UNL     1      19.166  26.444  72.921  0.00  0.00    +0.000 OA
ATOM     20  C   UNL     1      19.968  27.590  72.676  0.00  0.00    +0.000 C 
ENDBRANCH  16  19
BRANCH  17  21
ATOM     21  O   UNL     1      16.461  27.111  73.350  0.00  0.00    +0.000 OA
ATOM     22  C   UNL     1      16.194  28.446  72.960  0.00  0.00    +0.000 C 
ENDBRANCH  17  21
ENDBRANCH   2  13
TORSDOF 6
ENDMDL
MODEL 10
REMARK VINA RESULT:       0.0     11.613     15.569
REMARK  Name = 
REMARK  6 active torsions:
REMARK  status: ('A' for Active; 'I' for Inactive)
REMARK    1  A    between atoms: O_2  and  C_3
REMARK    2  A    between atoms: C_5  and  C_6
REMARK    3  A    between atoms: C_7  and  C_8
REMARK    4  A    between atoms: C_11  and  O_12
REMARK    5  A    between atoms: C_14  and  O_15
REMARK    6  A    between atoms: C_19  and  O_20
REMARK                            x       y       z     vdW  Elec       q    Type
REMARK                         _______ _______ _______ _____ _____    ______ ____
ROOT
ATOM      1  C   UNL     1      -0.680  13.238  72.381  0.00  0.00    +0.000 C 
ATOM      2  C   UNL     1       0.176  14.028  73.032  0.00  0.00    +0.000 C 
ENDROOT
BRANCH   1   5
ATOM      3  C   UNL     1       1.215  10.539  70.689  0.00  0.00    +0.000 A 
ATOM      4  C   UNL     1       0.663  11.364  71.660  0.00  0.00    +0.000 A 
ATOM      5  C   UNL     1      -0.082  12.476  71.278  0.00  0.00    +0.000 A 
ATOM      6  C   UNL     1      -0.899  12.269  70.171  0.00  0.00    +0.000 A 
ATOM      7  C   UNL     1      -0.633  11.215  69.306  0.00  0.00    +0.000 A 
ATOM      8  C   UNL     1       0.589  10.569  69.449  0.00  0.00    +0.000 A 
BRANCH   3  10
ATOM      9  C   UNL     1       3.630  10.879  71.072  0.00  0.00    +0.000 C 
ATOM     10  O   UNL     1       2.512  10.064  70.863  0.00  0.00    +0.000 OA
ENDBRANCH   3  10
BRANCH   7  11
ATOM     11  O   UNL     1      -1.576  10.830  68.355  0.00  0.00    +0.000 OA
ATOM     12  C   UNL     1      -2.747  11.595  68.203  0.00  0.00    +0.000 C 
ENDBRANCH   7  11
ENDBRANCH   1   5
BRANCH   2  13
ATOM     13  C   UNL     1       0.888  14.996  72.197  0.00  0.00    +0.000 A 
ATOM     14  C   UNL     1       0.292  15.790  71.257  0.00  0.00    +0.000 A 
ATOM     15  C   UNL     1       0.881  16.036  70.034  0.00  0.00    +0.000 A 
ATOM     16  C   UNL     1       2.133  15.532  69.725  0.00  0.00    +0.000 A 
ATOM     17  C   UNL     1       2.857  14.990  70.777  0.00  0.00    +0.000 A 
ATOM     18  C   UNL     1       2.237  14.729  71.995  0.00  0.00    +0.000 A 
BRANCH  16  19
ATOM     19  O   UNL     1       2.736  15.765  68.484  0.00  0.00    +0.000 OA
ATOM     20  C   UNL     1       3.077  17.075  68.057  0.00  0.00    +0.000 C 
ENDBRANCH  16  19
BRANCH  17  21
ATOM     21  O   UNL     1       4.254  14.963  70.721  0.00  0.00    +0.000 OA
ATOM     22  C   UNL     1       4.916  16.068  71.309  0.00  0.00    +0.000 C 
ENDBRANCH  17  21
ENDBRANCH   2  13
TORSDOF 6
ENDMDL
