REMARK  Name = 
REMARK  8 active torsions:
REMARK  status: ('A' for Active; 'I' for Inactive)
REMARK    1  A    between atoms: C_2  and  O_4
REMARK    2  A    between atoms: O_4  and  C_5
REMARK    3  A    between atoms: C_8  and  C_9
REMARK    4  A    between atoms: C_10  and  C_11
REMARK    5  A    between atoms: C_13  and  O_14
REMARK    6  A    between atoms: O_14  and  C_15
REMARK    7  A    between atoms: C_19  and  O_20
REMARK    8  A    between atoms: O_20  and  C_21
REMARK                            x       y       z     vdW  Elec       q    Type
REMARK                         _______ _______ _______ _____ _____    ______ ____
ROOT
ATOM      1  C   UNL     1      -1.091  -0.794   1.142  0.00  0.00    +0.000 A 
ATOM      2  C   UNL     1      -1.822  -1.877   0.669  0.00  0.00    +0.000 A 
ATOM      3  C   UNL     1      -3.172  -1.770   0.354  0.00  0.00    +0.000 A 
ATOM      4  C   UNL     1      -3.798  -0.532   0.397  0.00  0.00    +0.000 A 
ATOM      5  C   UNL     1      -3.030   0.591   0.664  0.00  0.00    +0.000 A 
ATOM      6  C   UNL     1      -1.678   0.449   0.933  0.00  0.00    +0.000 A 
ENDROOT
BRANCH   1   8
ATOM      7  C   UNL     1       0.988  -0.292   2.159  0.00  0.00    +0.000 C 
ATOM      8  C   UNL     1      -0.127  -1.003   2.231  0.00  0.00    +0.000 C 
BRANCH   7  12
ATOM      9  C   UNL     1       4.189   0.071  -0.394  0.00  0.00    +0.000 A 
ATOM     10  C   UNL     1       3.783  -1.203  -0.018  0.00  0.00    +0.000 A 
ATOM     11  C   UNL     1       2.535  -1.419   0.554  0.00  0.00    +0.000 A 
ATOM     12  C   UNL     1       1.705  -0.354   0.879  0.00  0.00    +0.000 A 
ATOM     13  C   UNL     1       1.989   0.843   0.234  0.00  0.00    +0.000 A 
ATOM     14  C   UNL     1       3.175   1.018  -0.470  0.00  0.00    +0.000 A 
BRANCH   9  15
ATOM     15  O   UNL     1       5.529   0.435  -0.231  0.00  0.00    +0.000 OA
BRANCH  15  17
ATOM     16  C   UNL     1       7.184   2.280  -0.686  0.00  0.00    +0.000 C 
ATOM     17  C   UNL     1       6.035   1.414  -1.090  0.00  0.00    +0.000 C 
ATOM     18  O   UNL     1       5.836   1.199  -2.322  0.00  0.00    +0.000 OA
ENDBRANCH  15  17
ENDBRANCH   9  15
ENDBRANCH   7  12
ENDBRANCH   1   8
BRANCH   3  19
ATOM     19  O   UNL     1      -3.829  -2.770  -0.371  0.00  0.00    +0.000 OA
BRANCH  19  20
ATOM     20  C   UNL     1      -3.954  -2.552  -1.747  0.00  0.00    +0.000 C 
ATOM     21  C   UNL     1      -4.983  -3.211  -2.579  0.00  0.00    +0.000 C 
ATOM     22  O   UNL     1      -2.926  -2.084  -2.321  0.00  0.00    +0.000 OA
ENDBRANCH  19  20
ENDBRANCH   3  19
BRANCH   5  23
ATOM     23  O   UNL     1      -3.683   1.809   0.671  0.00  0.00    +0.000 OA
BRANCH  23  24
ATOM     24  C   UNL     1      -3.144   2.843  -0.090  0.00  0.00    +0.000 C 
ATOM     25  C   UNL     1      -3.743   4.209  -0.013  0.00  0.00    +0.000 C 
ATOM     26  O   UNL     1      -1.967   2.701  -0.538  0.00  0.00    +0.000 OA
ENDBRANCH  23  24
ENDBRANCH   5  23
TORSDOF 8
