REMARK  Name = 
REMARK  3 active torsions:
REMARK  status: ('A' for Active; 'I' for Inactive)
REMARK    1  A    between atoms: O_2  and  C_3
REMARK    2  A    between atoms: C_8  and  C_9
REMARK    3  A    between atoms: C_10  and  C_11
REMARK                            x       y       z     vdW  Elec       q    Type
REMARK                         _______ _______ _______ _____ _____    ______ ____
ROOT
ATOM      1  C   UNL     1       2.926   0.546   0.413  0.00  0.00    +0.000 A 
ATOM      2  C   UNL     1       3.565  -0.688   0.388  0.00  0.00    +0.000 A 
ATOM      3  C   UNL     1       2.804  -1.808   0.151  0.00  0.00    +0.000 A 
ATOM      4  O   UNL     1       3.496  -3.017   0.030  0.00  0.00    +0.000 OA
ATOM      5  C   UNL     1       1.482  -1.685  -0.251  0.00  0.00    +0.000 A 
ATOM      6  C   UNL     1       0.890  -0.447  -0.469  0.00  0.00    +0.000 A 
ATOM      7  C   UNL     1       1.603   0.641   0.008  0.00  0.00    +0.000 A 
ENDROOT
BRANCH   1   9
ATOM      8  C   UNL     1       5.080   1.734   0.197  0.00  0.00    +0.000 C 
ATOM      9  O   UNL     1       3.731   1.653   0.588  0.00  0.00    +0.000 OA
ENDBRANCH   1   9
BRANCH   6  10
ATOM     10  C   UNL     1      -0.006  -0.248  -1.618  0.00  0.00    +0.000 C 
ATOM     11  C   UNL     1      -0.959   0.665  -1.423  0.00  0.00    +0.000 C 
BRANCH  11  12
ATOM     12  C   UNL     1      -1.829   0.381  -0.274  0.00  0.00    +0.000 A 
ATOM     13  C   UNL     1      -2.691  -0.700  -0.415  0.00  0.00    +0.000 A 
ATOM     14  C   UNL     1      -3.975  -0.711   0.070  0.00  0.00    +0.000 A 
ATOM     15  C   UNL     1      -4.458   0.380   0.746  0.00  0.00    +0.000 A 
ATOM     16  O   UNL     1      -5.825   0.574   0.822  0.00  0.00    +0.000 OA
ATOM     17  C   UNL     1      -3.530   1.317   1.169  0.00  0.00    +0.000 A 
ATOM     18  C   UNL     1      -2.305   1.414   0.527  0.00  0.00    +0.000 A 
ENDBRANCH  11  12
ENDBRANCH   6  10
TORSDOF 3
