REMARK  Name = 
REMARK  6 active torsions:
REMARK  status: ('A' for Active; 'I' for Inactive)
REMARK    1  A    between atoms: O_2  and  C_3
REMARK    2  A    between atoms: C_6  and  C_7
REMARK    3  A    between atoms: C_8  and  C_9
REMARK    4  A    between atoms: C_11  and  O_12
REMARK    5  A    between atoms: C_14  and  O_15
REMARK    6  A    between atoms: C_17  and  O_18
REMARK                            x       y       z     vdW  Elec       q    Type
REMARK                         _______ _______ _______ _____ _____    ______ ____
ROOT
ATOM      1  C   UNL     1       0.828   0.162   0.743  0.00  0.00    +0.000 A 
ATOM      2  C   UNL     1       1.186   0.639  -0.513  0.00  0.00    +0.000 A 
ATOM      3  C   UNL     1       2.520   0.683  -0.900  0.00  0.00    +0.000 A 
ATOM      4  C   UNL     1       3.455  -0.093  -0.225  0.00  0.00    +0.000 A 
ATOM      5  C   UNL     1       3.076  -0.748   0.940  0.00  0.00    +0.000 A 
ATOM      6  C   UNL     1       1.747  -0.707   1.320  0.00  0.00    +0.000 A 
ENDROOT
BRANCH   1   8
ATOM      7  C   UNL     1      -1.308   0.398   1.713  0.00  0.00    +0.000 C 
ATOM      8  C   UNL     1      -0.096   0.899   1.617  0.00  0.00    +0.000 C 
BRANCH   7  12
ATOM      9  C   UNL     1      -4.513   0.186  -0.853  0.00  0.00    +0.000 A 
ATOM     10  C   UNL     1      -3.662   1.278  -0.944  0.00  0.00    +0.000 A 
ATOM     11  C   UNL     1      -2.474   1.296  -0.223  0.00  0.00    +0.000 A 
ATOM     12  C   UNL     1      -2.004   0.169   0.440  0.00  0.00    +0.000 A 
ATOM     13  C   UNL     1      -2.709  -1.004   0.201  0.00  0.00    +0.000 A 
ATOM     14  C   UNL     1      -3.984  -0.995  -0.351  0.00  0.00    +0.000 A 
ATOM     15  O   UNL     1      -4.660  -2.163  -0.683  0.00  0.00    +0.000 OA
BRANCH   9  17
ATOM     16  C   UNL     1      -6.498   0.861   0.429  0.00  0.00    +0.000 C 
ATOM     17  O   UNL     1      -5.896   0.367  -0.757  0.00  0.00    +0.000 OA
ENDBRANCH   9  17
ENDBRANCH   7  12
ENDBRANCH   1   8
BRANCH   3  18
ATOM     18  O   UNL     1       2.910   1.206  -2.135  0.00  0.00    +0.000 OA
ATOM     19  C   UNL     1       4.104   1.972  -2.148  0.00  0.00    +0.000 C 
ENDBRANCH   3  18
BRANCH   4  20
ATOM     20  O   UNL     1       4.657  -0.449  -0.840  0.00  0.00    +0.000 OA
ATOM     21  C   UNL     1       4.736  -1.734  -1.444  0.00  0.00    +0.000 C 
ENDBRANCH   4  20
BRANCH   5  22
ATOM     22  O   UNL     1       4.053  -1.399   1.700  0.00  0.00    +0.000 OA
ATOM     23  C   UNL     1       4.530  -0.825   2.914  0.00  0.00    +0.000 C 
ENDBRANCH   5  22
TORSDOF 6
