MODEL 1
REMARK VINA RESULT:      -0.0      0.000      0.000
REMARK  Name = 
REMARK  6 active torsions:
REMARK  status: ('A' for Active; 'I' for Inactive)
REMARK    1  A    between atoms: O_2  and  C_3
REMARK    2  A    between atoms: C_6  and  C_7
REMARK    3  A    between atoms: C_8  and  C_9
REMARK    4  A    between atoms: C_11  and  O_12
REMARK    5  A    between atoms: C_14  and  O_15
REMARK    6  A    between atoms: C_17  and  O_18
REMARK                            x       y       z     vdW  Elec       q    Type
REMARK                         _______ _______ _______ _____ _____    ______ ____
ROOT
ATOM      1  C   UNL     1       7.796  21.723  51.630  0.00  0.00    +0.000 A 
ATOM      2  C   UNL     1       6.990  22.309  50.660  0.00  0.00    +0.000 A 
ATOM      3  C   UNL     1       7.554  22.959  49.569  0.00  0.00    +0.000 A 
ATOM      4  C   UNL     1       8.876  22.699  49.225  0.00  0.00    +0.000 A 
ATOM      5  C   UNL     1       9.663  21.946  50.086  0.00  0.00    +0.000 A 
ATOM      6  C   UNL     1       9.070  21.373  51.196  0.00  0.00    +0.000 A 
ENDROOT
BRANCH   1   8
ATOM      7  C   UNL     1       7.541  20.878  53.816  0.00  0.00    +0.000 C 
ATOM      8  C   UNL     1       7.576  21.956  53.065  0.00  0.00    +0.000 C 
BRANCH   7  12
ATOM      9  C   UNL     1       5.307  18.651  51.180  0.00  0.00    +0.000 A 
ATOM     10  C   UNL     1       6.452  18.084  51.722  0.00  0.00    +0.000 A 
ATOM     11  C   UNL     1       7.129  18.732  52.748  0.00  0.00    +0.000 A 
ATOM     12  C   UNL     1       6.592  19.839  53.394  0.00  0.00    +0.000 A 
ATOM     13  C   UNL     1       5.280  20.150  53.059  0.00  0.00    +0.000 A 
ATOM     14  C   UNL     1       4.673  19.639  51.919  0.00  0.00    +0.000 A 
ATOM     15  O   UNL     1       3.333  19.865  51.624  0.00  0.00    +0.000 OA
BRANCH   9  17
ATOM     16  C   UNL     1       6.047  19.176  48.896  0.00  0.00    +0.000 C 
ATOM     17  O   UNL     1       5.093  18.638  49.798  0.00  0.00    +0.000 OA
ENDBRANCH   9  17
ENDBRANCH   7  12
ENDBRANCH   1   8
BRANCH   3  18
ATOM     18  O   UNL     1       6.768  23.600  48.609  0.00  0.00    +0.000 OA
ATOM     19  C   UNL     1       5.677  22.858  48.088  0.00  0.00    +0.000 C 
ENDBRANCH   3  18
BRANCH   4  20
ATOM     20  O   UNL     1       9.328  22.933  47.925  0.00  0.00    +0.000 OA
ATOM     21  C   UNL     1       9.178  21.886  46.974  0.00  0.00    +0.000 C 
ENDBRANCH   4  20
BRANCH   5  22
ATOM     22  O   UNL     1      11.030  21.816  49.816  0.00  0.00    +0.000 OA
ATOM     23  C   UNL     1      11.602  20.536  49.563  0.00  0.00    +0.000 C 
ENDBRANCH   5  22
TORSDOF 6
ENDMDL
MODEL 2
REMARK VINA RESULT:      -0.0     22.717     25.684
REMARK  Name = 
REMARK  6 active torsions:
REMARK  status: ('A' for Active; 'I' for Inactive)
REMARK    1  A    between atoms: O_2  and  C_3
REMARK    2  A    between atoms: C_6  and  C_7
REMARK    3  A    between atoms: C_8  and  C_9
REMARK    4  A    between atoms: C_11  and  O_12
REMARK    5  A    between atoms: C_14  and  O_15
REMARK    6  A    between atoms: C_17  and  O_18
REMARK                            x       y       z     vdW  Elec       q    Type
REMARK                         _______ _______ _______ _____ _____    ______ ____
ROOT
ATOM      1  C   UNL     1     -12.336  27.707  63.620  0.00  0.00    +0.000 A 
ATOM      2  C   UNL     1     -12.438  28.219  64.909  0.00  0.00    +0.000 A 
ATOM      3  C   UNL     1     -13.575  28.913  65.307  0.00  0.00    +0.000 A 
ATOM      4  C   UNL     1     -14.754  28.767  64.586  0.00  0.00    +0.000 A 
ATOM      5  C   UNL     1     -14.727  28.086  63.375  0.00  0.00    +0.000 A 
ATOM      6  C   UNL     1     -13.552  27.467  62.990  0.00  0.00    +0.000 A 
ENDROOT
BRANCH   1   8
ATOM      7  C   UNL     1     -10.638  26.847  62.228  0.00  0.00    +0.000 C 
ATOM      8  C   UNL     1     -11.140  27.923  62.793  0.00  0.00    +0.000 C 
BRANCH   7  12
ATOM      9  C   UNL     1     -11.108  24.435  65.524  0.00  0.00    +0.000 A 
ATOM     10  C   UNL     1     -11.547  23.968  64.293  0.00  0.00    +0.000 A 
ATOM     11  C   UNL     1     -11.244  24.673  63.134  0.00  0.00    +0.000 A 
ATOM     12  C   UNL     1     -10.343  25.731  63.136  0.00  0.00    +0.000 A 
ATOM     13  C   UNL     1      -9.653  25.928  64.325  0.00  0.00    +0.000 A 
ATOM     14  C   UNL     1     -10.079  25.366  65.523  0.00  0.00    +0.000 A 
ATOM     15  O   UNL     1      -9.347  25.477  66.699  0.00  0.00    +0.000 OA
BRANCH   9  17
ATOM     16  C   UNL     1     -13.231  25.012  66.617  0.00  0.00    +0.000 C 
ATOM     17  O   UNL     1     -11.950  24.403  66.639  0.00  0.00    +0.000 OA
ENDBRANCH   9  17
ENDBRANCH   7  12
ENDBRANCH   1   8
BRANCH   3  18
ATOM     18  O   UNL     1     -13.680  29.482  66.578  0.00  0.00    +0.000 OA
ATOM     19  C   UNL     1     -13.341  28.647  67.674  0.00  0.00    +0.000 C 
ENDBRANCH   3  18
BRANCH   4  20
ATOM     20  O   UNL     1     -15.987  29.036  65.183  0.00  0.00    +0.000 OA
ATOM     21  C   UNL     1     -16.626  27.978  65.886  0.00  0.00    +0.000 C 
ENDBRANCH   4  20
BRANCH   5  22
ATOM     22  O   UNL     1     -15.876  28.074  62.578  0.00  0.00    +0.000 OA
ATOM     23  C   UNL     1     -16.530  26.847  62.266  0.00  0.00    +0.000 C 
ENDBRANCH   5  22
TORSDOF 6
ENDMDL
MODEL 3
REMARK VINA RESULT:      -0.0     18.208     20.777
REMARK  Name = 
REMARK  6 active torsions:
REMARK  status: ('A' for Active; 'I' for Inactive)
REMARK    1  A    between atoms: O_2  and  C_3
REMARK    2  A    between atoms: C_6  and  C_7
REMARK    3  A    between atoms: C_8  and  C_9
REMARK    4  A    between atoms: C_11  and  O_12
REMARK    5  A    between atoms: C_14  and  O_15
REMARK    6  A    between atoms: C_17  and  O_18
REMARK                            x       y       z     vdW  Elec       q    Type
REMARK                         _______ _______ _______ _____ _____    ______ ____
ROOT
ATOM      1  C   UNL     1       3.587  17.123  71.468  0.00  0.00    +0.000 A 
ATOM      2  C   UNL     1       3.650  17.771  70.240  0.00  0.00    +0.000 A 
ATOM      3  C   UNL     1       4.815  17.742  69.483  0.00  0.00    +0.000 A 
ATOM      4  C   UNL     1       5.773  16.766  69.736  0.00  0.00    +0.000 A 
ATOM      5  C   UNL     1       5.637  15.962  70.861  0.00  0.00    +0.000 A 
ATOM      6  C   UNL     1       4.488  16.075  71.621  0.00  0.00    +0.000 A 
ENDROOT
BRANCH   1   8
ATOM      7  C   UNL     1       2.166  17.111  73.350  0.00  0.00    +0.000 C 
ATOM      8  C   UNL     1       3.065  17.789  72.670  0.00  0.00    +0.000 C 
BRANCH   7  12
ATOM      9  C   UNL     1       0.130  15.759  70.044  0.00  0.00    +0.000 A 
ATOM     10  C   UNL     1       0.477  14.845  71.029  0.00  0.00    +0.000 A 
ATOM     11  C   UNL     1       1.001  15.290  72.237  0.00  0.00    +0.000 A 
ATOM     12  C   UNL     1       1.010  16.636  72.579  0.00  0.00    +0.000 A 
ATOM     13  C   UNL     1       0.321  17.478  71.714  0.00  0.00    +0.000 A 
ATOM     14  C   UNL     1      -0.033  17.082  70.431  0.00  0.00    +0.000 A 
ATOM     15  O   UNL     1      -0.805  17.878  69.592  0.00  0.00    +0.000 OA
BRANCH   9  17
ATOM     16  C   UNL     1       1.763  15.234  68.284  0.00  0.00    +0.000 C 
ATOM     17  O   UNL     1       0.436  15.511  68.703  0.00  0.00    +0.000 OA
ENDBRANCH   9  17
ENDBRANCH   7  12
ENDBRANCH   1   8
BRANCH   3  18
ATOM     18  O   UNL     1       4.922  18.428  68.271  0.00  0.00    +0.000 OA
ATOM     19  C   UNL     1       3.862  18.244  67.346  0.00  0.00    +0.000 C 
ENDBRANCH   3  18
BRANCH   4  20
ATOM     20  O   UNL     1       6.689  16.399  68.748  0.00  0.00    +0.000 OA
ATOM     21  C   UNL     1       6.305  15.375  67.838  0.00  0.00    +0.000 C 
ENDBRANCH   4  20
BRANCH   5  22
ATOM     22  O   UNL     1       6.677  15.090  71.199  0.00  0.00    +0.000 OA
ATOM     23  C   UNL     1       6.462  13.681  71.229  0.00  0.00    +0.000 C 
ENDBRANCH   5  22
TORSDOF 6
ENDMDL
MODEL 4
REMARK VINA RESULT:      -0.0      8.379     10.969
REMARK  Name = 
REMARK  6 active torsions:
REMARK  status: ('A' for Active; 'I' for Inactive)
REMARK    1  A    between atoms: O_2  and  C_3
REMARK    2  A    between atoms: C_6  and  C_7
REMARK    3  A    between atoms: C_8  and  C_9
REMARK    4  A    between atoms: C_11  and  O_12
REMARK    5  A    between atoms: C_14  and  O_15
REMARK    6  A    between atoms: C_17  and  O_18
REMARK                            x       y       z     vdW  Elec       q    Type
REMARK                         _______ _______ _______ _____ _____    ______ ____
ROOT
ATOM      1  C   UNL     1      16.504  23.447  53.871  0.00  0.00    +0.000 A 
ATOM      2  C   UNL     1      17.118  23.344  52.628  0.00  0.00    +0.000 A 
ATOM      3  C   UNL     1      18.267  24.073  52.344  0.00  0.00    +0.000 A 
ATOM      4  C   UNL     1      19.027  24.589  53.387  0.00  0.00    +0.000 A 
ATOM      5  C   UNL     1      18.525  24.533  54.681  0.00  0.00    +0.000 A 
ATOM      6  C   UNL     1      17.342  23.852  54.904  0.00  0.00    +0.000 A 
ENDROOT
BRANCH   1   8
ATOM      7  C   UNL     1      14.432  22.862  54.834  0.00  0.00    +0.000 C 
ATOM      8  C   UNL     1      15.057  23.669  54.004  0.00  0.00    +0.000 C 
BRANCH   7  12
ATOM      9  C   UNL     1      16.434  19.474  53.645  0.00  0.00    +0.000 A 
ATOM     10  C   UNL     1      16.328  19.740  55.002  0.00  0.00    +0.000 A 
ATOM     11  C   UNL     1      15.509  20.770  55.448  0.00  0.00    +0.000 A 
ATOM     12  C   UNL     1      14.631  21.427  54.595  0.00  0.00    +0.000 A 
ATOM     13  C   UNL     1      14.511  20.881  53.322  0.00  0.00    +0.000 A 
ATOM     14  C   UNL     1      15.448  19.989  52.815  0.00  0.00    +0.000 A 
ATOM     15  O   UNL     1      15.290  19.364  51.584  0.00  0.00    +0.000 OA
BRANCH   9  17
ATOM     16  C   UNL     1      18.778  20.068  53.205  0.00  0.00    +0.000 C 
ATOM     17  O   UNL     1      17.676  19.185  53.070  0.00  0.00    +0.000 OA
ENDBRANCH   9  17
ENDBRANCH   7  12
ENDBRANCH   1   8
BRANCH   3  18
ATOM     18  O   UNL     1      18.873  24.028  51.086  0.00  0.00    +0.000 OA
ATOM     19  C   UNL     1      19.095  22.738  50.538  0.00  0.00    +0.000 C 
ENDBRANCH   3  18
BRANCH   4  20
ATOM     20  O   UNL     1      20.376  24.893  53.198  0.00  0.00    +0.000 OA
ATOM     21  C   UNL     1      21.324  23.853  53.406  0.00  0.00    +0.000 C 
ENDBRANCH   4  20
BRANCH   5  22
ATOM     22  O   UNL     1      19.216  25.189  55.705  0.00  0.00    +0.000 OA
ATOM     23  C   UNL     1      19.750  24.457  56.805  0.00  0.00    +0.000 C 
ENDBRANCH   5  22
TORSDOF 6
ENDMDL
MODEL 5
REMARK VINA RESULT:      -0.0      9.452     12.913
REMARK  Name = 
REMARK  6 active torsions:
REMARK  status: ('A' for Active; 'I' for Inactive)
REMARK    1  A    between atoms: O_2  and  C_3
REMARK    2  A    between atoms: C_6  and  C_7
REMARK    3  A    between atoms: C_8  and  C_9
REMARK    4  A    between atoms: C_11  and  O_12
REMARK    5  A    between atoms: C_14  and  O_15
REMARK    6  A    between atoms: C_17  and  O_18
REMARK                            x       y       z     vdW  Elec       q    Type
REMARK                         _______ _______ _______ _____ _____    ______ ____
ROOT
ATOM      1  C   UNL     1      13.866  16.519  42.568  0.00  0.00    +0.000 A 
ATOM      2  C   UNL     1      13.866  16.619  43.955  0.00  0.00    +0.000 A 
ATOM      3  C   UNL     1      12.778  16.177  44.697  0.00  0.00    +0.000 A 
ATOM      4  C   UNL     1      11.872  15.292  44.125  0.00  0.00    +0.000 A 
ATOM      5  C   UNL     1      11.963  15.016  42.766  0.00  0.00    +0.000 A 
ATOM      6  C   UNL     1      13.030  15.534  42.055  0.00  0.00    +0.000 A 
ENDROOT
BRANCH   1   8
ATOM      7  C   UNL     1      15.112  17.393  40.768  0.00  0.00    +0.000 C 
ATOM      8  C   UNL     1      14.233  17.654  41.710  0.00  0.00    +0.000 C 
BRANCH   7  12
ATOM      9  C   UNL     1      17.521  15.052  43.138  0.00  0.00    +0.000 A 
ATOM     10  C   UNL     1      17.153  14.573  41.889  0.00  0.00    +0.000 A 
ATOM     11  C   UNL     1      16.495  15.405  40.991  0.00  0.00    +0.000 A 
ATOM     12  C   UNL     1      16.362  16.769  41.220  0.00  0.00    +0.000 A 
ATOM     13  C   UNL     1      17.065  17.263  42.312  0.00  0.00    +0.000 A 
ATOM     14  C   UNL     1      17.558  16.429  43.307  0.00  0.00    +0.000 A 
ATOM     15  O   UNL     1      18.343  16.900  44.353  0.00  0.00    +0.000 OA
BRANCH   9  17
ATOM     16  C   UNL     1      16.090  13.716  44.623  0.00  0.00    +0.000 C 
ATOM     17  O   UNL     1      17.353  14.264  44.280  0.00  0.00    +0.000 OA
ENDBRANCH   9  17
ENDBRANCH   7  12
ENDBRANCH   1   8
BRANCH   3  18
ATOM     18  O   UNL     1      12.731  16.314  46.087  0.00  0.00    +0.000 OA
ATOM     19  C   UNL     1      13.879  15.885  46.802  0.00  0.00    +0.000 C 
ENDBRANCH   3  18
BRANCH   4  20
ATOM     20  O   UNL     1      11.074  14.475  44.929  0.00  0.00    +0.000 OA
ATOM     21  C   UNL     1      11.607  13.219  45.329  0.00  0.00    +0.000 C 
ENDBRANCH   4  20
BRANCH   5  22
ATOM     22  O   UNL     1      10.961  14.250  42.162  0.00  0.00    +0.000 OA
ATOM     23  C   UNL     1      11.270  12.997  41.557  0.00  0.00    +0.000 C 
ENDBRANCH   5  22
TORSDOF 6
ENDMDL
MODEL 6
REMARK VINA RESULT:      -0.0     13.636     15.987
REMARK  Name = 
REMARK  6 active torsions:
REMARK  status: ('A' for Active; 'I' for Inactive)
REMARK    1  A    between atoms: O_2  and  C_3
REMARK    2  A    between atoms: C_6  and  C_7
REMARK    3  A    between atoms: C_8  and  C_9
REMARK    4  A    between atoms: C_11  and  O_12
REMARK    5  A    between atoms: C_14  and  O_15
REMARK    6  A    between atoms: C_17  and  O_18
REMARK                            x       y       z     vdW  Elec       q    Type
REMARK                         _______ _______ _______ _____ _____    ______ ____
ROOT
ATOM      1  C   UNL     1      -2.679  15.975  59.898  0.00  0.00    +0.000 A 
ATOM      2  C   UNL     1      -3.829  16.342  60.587  0.00  0.00    +0.000 A 
ATOM      3  C   UNL     1      -4.833  17.065  59.955  0.00  0.00    +0.000 A 
ATOM      4  C   UNL     1      -4.890  17.088  58.566  0.00  0.00    +0.000 A 
ATOM      5  C   UNL     1      -3.837  16.550  57.837  0.00  0.00    +0.000 A 
ATOM      6  C   UNL     1      -2.827  15.896  58.517  0.00  0.00    +0.000 A 
ENDROOT
BRANCH   1   8
ATOM      7  C   UNL     1      -0.529  15.160  60.423  0.00  0.00    +0.000 C 
ATOM      8  C   UNL     1      -1.337  16.197  60.455  0.00  0.00    +0.000 C 
BRANCH   7  12
ATOM      9  C   UNL     1      -3.382  12.424  61.552  0.00  0.00    +0.000 A 
ATOM     10  C   UNL     1      -2.585  12.135  60.454  0.00  0.00    +0.000 A 
ATOM     11  C   UNL     1      -1.496  12.945  60.153  0.00  0.00    +0.000 A 
ATOM     12  C   UNL     1      -1.052  13.928  61.028  0.00  0.00    +0.000 A 
ATOM     13  C   UNL     1      -1.660  13.937  62.277  0.00  0.00    +0.000 A 
ATOM     14  C   UNL     1      -2.857  13.273  62.516  0.00  0.00    +0.000 A 
ATOM     15  O   UNL     1      -3.426  13.194  63.782  0.00  0.00    +0.000 OA
BRANCH   9  17
ATOM     16  C   UNL     1      -5.508  13.027  60.477  0.00  0.00    +0.000 C 
ATOM     17  O   UNL     1      -4.774  12.324  61.467  0.00  0.00    +0.000 OA
ENDBRANCH   9  17
ENDBRANCH   7  12
ENDBRANCH   1   8
BRANCH   3  18
ATOM     18  O   UNL     1      -5.974  17.492  60.639  0.00  0.00    +0.000 OA
ATOM     19  C   UNL     1      -6.643  16.515  61.420  0.00  0.00    +0.000 C 
ENDBRANCH   3  18
BRANCH   4  20
ATOM     20  O   UNL     1      -6.089  17.375  57.911  0.00  0.00    +0.000 OA
ATOM     21  C   UNL     1      -6.971  16.293  57.641  0.00  0.00    +0.000 C 
ENDBRANCH   4  20
BRANCH   5  22
ATOM     22  O   UNL     1      -3.823  16.712  56.448  0.00  0.00    +0.000 OA
ATOM     23  C   UNL     1      -3.864  15.579  55.584  0.00  0.00    +0.000 C 
ENDBRANCH   5  22
TORSDOF 6
ENDMDL
MODEL 7
REMARK VINA RESULT:      -0.0      8.800     11.335
REMARK  Name = 
REMARK  6 active torsions:
REMARK  status: ('A' for Active; 'I' for Inactive)
REMARK    1  A    between atoms: O_2  and  C_3
REMARK    2  A    between atoms: C_6  and  C_7
REMARK    3  A    between atoms: C_8  and  C_9
REMARK    4  A    between atoms: C_11  and  O_12
REMARK    5  A    between atoms: C_14  and  O_15
REMARK    6  A    between atoms: C_17  and  O_18
REMARK                            x       y       z     vdW  Elec       q    Type
REMARK                         _______ _______ _______ _____ _____    ______ ____
ROOT
ATOM      1  C   UNL     1       8.420  29.056  56.876  0.00  0.00    +0.000 A 
ATOM      2  C   UNL     1       8.711  28.146  55.866  0.00  0.00    +0.000 A 
ATOM      3  C   UNL     1       7.691  27.556  55.129  0.00  0.00    +0.000 A 
ATOM      4  C   UNL     1       6.430  28.141  55.114  0.00  0.00    +0.000 A 
ATOM      5  C   UNL     1       6.161  29.191  55.982  0.00  0.00    +0.000 A 
ATOM      6  C   UNL     1       7.195  29.701  56.744  0.00  0.00    +0.000 A 
ENDROOT
BRANCH   1   8
ATOM      7  C   UNL     1       9.554  30.057  58.685  0.00  0.00    +0.000 C 
ATOM      8  C   UNL     1       9.025  28.950  58.212  0.00  0.00    +0.000 C 
BRANCH   7  12
ATOM      9  C   UNL     1      11.291  31.193  55.136  0.00  0.00    +0.000 A 
ATOM     10  C   UNL     1      10.548  32.130  55.840  0.00  0.00    +0.000 A 
ATOM     11  C   UNL     1      10.100  31.840  57.123  0.00  0.00    +0.000 A 
ATOM     12  C   UNL     1      10.536  30.715  57.813  0.00  0.00    +0.000 A 
ATOM     13  C   UNL     1      11.560  29.999  57.205  0.00  0.00    +0.000 A 
ATOM     14  C   UNL     1      11.874  30.164  55.862  0.00  0.00    +0.000 A 
ATOM     15  O   UNL     1      12.955  29.525  55.267  0.00  0.00    +0.000 OA
BRANCH   9  17
ATOM     16  C   UNL     1       9.757  30.627  53.300  0.00  0.00    +0.000 C 
ATOM     17  O   UNL     1      11.049  30.968  53.777  0.00  0.00    +0.000 OA
ENDBRANCH   9  17
ENDBRANCH   7  12
ENDBRANCH   1   8
BRANCH   3  18
ATOM     18  O   UNL     1       7.954  26.600  54.145  0.00  0.00    +0.000 OA
ATOM     19  C   UNL     1       8.963  26.925  53.203  0.00  0.00    +0.000 C 
ENDBRANCH   3  18
BRANCH   4  20
ATOM     20  O   UNL     1       5.544  27.887  54.064  0.00  0.00    +0.000 OA
ATOM     21  C   UNL     1       5.626  28.719  52.914  0.00  0.00    +0.000 C 
ENDBRANCH   4  20
BRANCH   5  22
ATOM     22  O   UNL     1       4.851  29.674  56.076  0.00  0.00    +0.000 OA
ATOM     23  C   UNL     1       4.549  31.023  55.730  0.00  0.00    +0.000 C 
ENDBRANCH   5  22
TORSDOF 6
ENDMDL
MODEL 8
REMARK VINA RESULT:      -0.0     16.435     18.373
REMARK  Name = 
REMARK  6 active torsions:
REMARK  status: ('A' for Active; 'I' for Inactive)
REMARK    1  A    between atoms: O_2  and  C_3
REMARK    2  A    between atoms: C_6  and  C_7
REMARK    3  A    between atoms: C_8  and  C_9
REMARK    4  A    between atoms: C_11  and  O_12
REMARK    5  A    between atoms: C_14  and  O_15
REMARK    6  A    between atoms: C_17  and  O_18
REMARK                            x       y       z     vdW  Elec       q    Type
REMARK                         _______ _______ _______ _____ _____    ______ ____
ROOT
ATOM      1  C   UNL     1      16.688  28.382  65.419  0.00  0.00    +0.000 A 
ATOM      2  C   UNL     1      15.618  28.723  66.237  0.00  0.00    +0.000 A 
ATOM      3  C   UNL     1      14.848  29.847  65.963  0.00  0.00    +0.000 A 
ATOM      4  C   UNL     1      14.877  30.405  64.690  0.00  0.00    +0.000 A 
ATOM      5  C   UNL     1      15.816  29.948  63.774  0.00  0.00    +0.000 A 
ATOM      6  C   UNL     1      16.606  28.866  64.119  0.00  0.00    +0.000 A 
ENDROOT
BRANCH   1   8
ATOM      7  C   UNL     1      18.555  26.945  65.519  0.00  0.00    +0.000 C 
ATOM      8  C   UNL     1      18.011  28.053  65.971  0.00  0.00    +0.000 C 
BRANCH   7  12
ATOM      9  C   UNL     1      15.083  24.746  65.630  0.00  0.00    +0.000 A 
ATOM     10  C   UNL     1      15.853  24.712  64.476  0.00  0.00    +0.000 A 
ATOM     11  C   UNL     1      17.115  25.292  64.465  0.00  0.00    +0.000 A 
ATOM     12  C   UNL     1      17.726  25.737  65.631  0.00  0.00    +0.000 A 
ATOM     13  C   UNL     1      17.066  25.419  66.811  0.00  0.00    +0.000 A 
ATOM     14  C   UNL     1      15.735  25.019  66.824  0.00  0.00    +0.000 A 
ATOM     15  O   UNL     1      15.093  24.607  67.986  0.00  0.00    +0.000 OA
BRANCH   9  17
ATOM     16  C   UNL     1      13.221  26.194  64.939  0.00  0.00    +0.000 C 
ATOM     17  O   UNL     1      13.713  25.019  65.565  0.00  0.00    +0.000 OA
ENDBRANCH   9  17
ENDBRANCH   7  12
ENDBRANCH   1   8
BRANCH   3  18
ATOM     18  O   UNL     1      13.800  30.242  66.799  0.00  0.00    +0.000 OA
ATOM     19  C   UNL     1      12.877  29.232  67.174  0.00  0.00    +0.000 C 
ENDBRANCH   3  18
BRANCH   4  20
ATOM     20  O   UNL     1      13.818  31.192  64.237  0.00  0.00    +0.000 OA
ATOM     21  C   UNL     1      12.726  30.534  63.607  0.00  0.00    +0.000 C 
ENDBRANCH   4  20
BRANCH   5  22
ATOM     22  O   UNL     1      15.948  30.613  62.551  0.00  0.00    +0.000 OA
ATOM     23  C   UNL     1      15.696  29.933  61.324  0.00  0.00    +0.000 C 
ENDBRANCH   5  22
TORSDOF 6
ENDMDL
MODEL 9
REMARK VINA RESULT:      -0.0     14.140     16.907
REMARK  Name = 
REMARK  6 active torsions:
REMARK  status: ('A' for Active; 'I' for Inactive)
REMARK    1  A    between atoms: O_2  and  C_3
REMARK    2  A    between atoms: C_6  and  C_7
REMARK    3  A    between atoms: C_8  and  C_9
REMARK    4  A    between atoms: C_11  and  O_12
REMARK    5  A    between atoms: C_14  and  O_15
REMARK    6  A    between atoms: C_17  and  O_18
REMARK                            x       y       z     vdW  Elec       q    Type
REMARK                         _______ _______ _______ _____ _____    ______ ____
ROOT
ATOM      1  C   UNL     1       1.498  19.857  66.338  0.00  0.00    +0.000 A 
ATOM      2  C   UNL     1       2.644  20.430  65.796  0.00  0.00    +0.000 A 
ATOM      3  C   UNL     1       3.554  21.097  66.607  0.00  0.00    +0.000 A 
ATOM      4  C   UNL     1       3.546  20.868  67.978  0.00  0.00    +0.000 A 
ATOM      5  C   UNL     1       2.510  20.128  68.534  0.00  0.00    +0.000 A 
ATOM      6  C   UNL     1       1.590  19.537  67.688  0.00  0.00    +0.000 A 
ENDROOT
BRANCH   1   8
ATOM      7  C   UNL     1      -0.549  18.996  65.547  0.00  0.00    +0.000 C 
ATOM      8  C   UNL     1       0.169  20.079  65.750  0.00  0.00    +0.000 C 
BRANCH   7  12
ATOM      9  C   UNL     1       2.573  16.735  64.116  0.00  0.00    +0.000 A 
ATOM     10  C   UNL     1       1.754  16.191  65.094  0.00  0.00    +0.000 A 
ATOM     11  C   UNL     1       0.588  16.847  65.471  0.00  0.00    +0.000 A 
ATOM     12  C   UNL     1       0.103  17.939  64.761  0.00  0.00    +0.000 A 
ATOM     13  C   UNL     1       0.764  18.223  63.573  0.00  0.00    +0.000 A 
ATOM     14  C   UNL     1       2.022  17.706  63.291  0.00  0.00    +0.000 A 
ATOM     15  O   UNL     1       2.651  17.905  62.068  0.00  0.00    +0.000 OA
BRANCH   9  17
ATOM     16  C   UNL     1       4.590  17.286  65.407  0.00  0.00    +0.000 C 
ATOM     17  O   UNL     1       3.963  16.726  64.264  0.00  0.00    +0.000 OA
ENDBRANCH   9  17
ENDBRANCH   7  12
ENDBRANCH   1   8
BRANCH   3  18
ATOM     18  O   UNL     1       4.684  21.726  66.081  0.00  0.00    +0.000 OA
ATOM     19  C   UNL     1       5.468  20.962  65.178  0.00  0.00    +0.000 C 
ENDBRANCH   3  18
BRANCH   4  20
ATOM     20  O   UNL     1       4.686  21.118  68.745  0.00  0.00    +0.000 OA
ATOM     21  C   UNL     1       5.642  20.072  68.868  0.00  0.00    +0.000 C 
ENDBRANCH   4  20
BRANCH   5  22
ATOM     22  O   UNL     1       2.419  20.030  69.926  0.00  0.00    +0.000 OA
ATOM     23  C   UNL     1       2.515  18.763  70.573  0.00  0.00    +0.000 C 
ENDBRANCH   5  22
TORSDOF 6
ENDMDL
MODEL 10
REMARK VINA RESULT:      -0.0     18.199     20.739
REMARK  Name = 
REMARK  6 active torsions:
REMARK  status: ('A' for Active; 'I' for Inactive)
REMARK    1  A    between atoms: O_2  and  C_3
REMARK    2  A    between atoms: C_6  and  C_7
REMARK    3  A    between atoms: C_8  and  C_9
REMARK    4  A    between atoms: C_11  and  O_12
REMARK    5  A    between atoms: C_14  and  O_15
REMARK    6  A    between atoms: C_17  and  O_18
REMARK                            x       y       z     vdW  Elec       q    Type
REMARK                         _______ _______ _______ _____ _____    ______ ____
ROOT
ATOM      1  C   UNL     1      10.301  21.746  70.233  0.00  0.00    +0.000 A 
ATOM      2  C   UNL     1      11.441  21.874  71.020  0.00  0.00    +0.000 A 
ATOM      3  C   UNL     1      12.704  21.871  70.442  0.00  0.00    +0.000 A 
ATOM      4  C   UNL     1      12.837  22.136  69.084  0.00  0.00    +0.000 A 
ATOM      5  C   UNL     1      11.696  22.209  68.294  0.00  0.00    +0.000 A 
ATOM      6  C   UNL     1      10.459  22.140  68.910  0.00  0.00    +0.000 A 
ENDROOT
BRANCH   1   8
ATOM      7  C   UNL     1       8.013  21.281  70.561  0.00  0.00    +0.000 C 
ATOM      8  C   UNL     1       9.234  20.792  70.566  0.00  0.00    +0.000 C 
BRANCH   7  12
ATOM      9  C   UNL     1       9.011  24.805  72.428  0.00  0.00    +0.000 A 
ATOM     10  C   UNL     1       8.236  24.860  71.279  0.00  0.00    +0.000 A 
ATOM     11  C   UNL     1       7.729  23.691  70.725  0.00  0.00    +0.000 A 
ATOM     12  C   UNL     1       7.803  22.474  71.392  0.00  0.00    +0.000 A 
ATOM     13  C   UNL     1       8.265  22.535  72.701  0.00  0.00    +0.000 A 
ATOM     14  C   UNL     1       8.943  23.646  73.189  0.00  0.00    +0.000 A 
ATOM     15  O   UNL     1       9.326  23.759  74.520  0.00  0.00    +0.000 OA
BRANCH   9  17
ATOM     16  C   UNL     1      11.199  25.540  71.586  0.00  0.00    +0.000 C 
ATOM     17  O   UNL     1      10.160  25.592  72.551  0.00  0.00    +0.000 OA
ENDBRANCH   9  17
ENDBRANCH   7  12
ENDBRANCH   1   8
BRANCH   3  18
ATOM     18  O   UNL     1      13.866  21.945  71.214  0.00  0.00    +0.000 OA
ATOM     19  C   UNL     1      13.903  22.961  72.203  0.00  0.00    +0.000 C 
ENDBRANCH   3  18
BRANCH   4  20
ATOM     20  O   UNL     1      14.047  22.605  68.568  0.00  0.00    +0.000 OA
ATOM     21  C   UNL     1      14.266  24.010  68.568  0.00  0.00    +0.000 C 
ENDBRANCH   4  20
BRANCH   5  22
ATOM     22  O   UNL     1      11.837  22.321  66.907  0.00  0.00    +0.000 OA
ATOM     23  C   UNL     1      11.339  23.463  66.216  0.00  0.00    +0.000 C 
ENDBRANCH   5  22
TORSDOF 6
ENDMDL
