REMARK  Name = 
REMARK  7 active torsions:
REMARK  status: ('A' for Active; 'I' for Inactive)
REMARK    1  A    between atoms: C_2  and  O_3
REMARK    2  A    between atoms: O_3  and  C_4
REMARK    3  A    between atoms: C_7  and  C_8
REMARK    4  A    between atoms: C_9  and  C_10
REMARK    5  A    between atoms: C_12  and  O_13
REMARK    6  A    between atoms: C_15  and  O_16
REMARK    7  A    between atoms: C_18  and  O_19
REMARK                            x       y       z     vdW  Elec       q    Type
REMARK                         _______ _______ _______ _____ _____    ______ ____
ROOT
ATOM      1  C   UNL     1       0.972  -1.233   0.233  0.00  0.00    +0.000 A 
ATOM      2  C   UNL     1       0.762   0.127   0.395  0.00  0.00    +0.000 A 
ATOM      3  C   UNL     1       1.774   1.059   0.348  0.00  0.00    +0.000 A 
ATOM      4  C   UNL     1       3.050   0.615   0.037  0.00  0.00    +0.000 A 
ATOM      5  C   UNL     1       3.344  -0.743   0.003  0.00  0.00    +0.000 A 
ATOM      6  C   UNL     1       2.272  -1.610  -0.060  0.00  0.00    +0.000 A 
ENDROOT
BRANCH   1   8
ATOM      7  C   UNL     1      -0.975  -2.571   0.342  0.00  0.00    +0.000 C 
ATOM      8  C   UNL     1       0.136  -2.212   0.942  0.00  0.00    +0.000 C 
BRANCH   7  12
ATOM      9  C   UNL     1      -4.074   0.033  -0.689  0.00  0.00    +0.000 A 
ATOM     10  C   UNL     1      -3.608   0.001   0.609  0.00  0.00    +0.000 A 
ATOM     11  C   UNL     1      -2.460  -0.740   0.860  0.00  0.00    +0.000 A 
ATOM     12  C   UNL     1      -1.840  -1.486  -0.138  0.00  0.00    +0.000 A 
ATOM     13  C   UNL     1      -2.681  -1.827  -1.193  0.00  0.00    +0.000 A 
ATOM     14  C   UNL     1      -3.775  -1.044  -1.498  0.00  0.00    +0.000 A 
BRANCH   9  15
ATOM     15  O   UNL     1      -4.834   1.062  -1.210  0.00  0.00    +0.000 OA
BRANCH  15  17
ATOM     16  C   UNL     1      -3.798   2.841   0.080  0.00  0.00    +0.000 C 
ATOM     17  C   UNL     1      -5.067   2.282  -0.554  0.00  0.00    +0.000 C 
ENDBRANCH  15  17
ENDBRANCH   9  15
ENDBRANCH   7  12
ENDBRANCH   1   8
BRANCH   3  18
ATOM     18  O   UNL     1       1.634   2.296   0.971  0.00  0.00    +0.000 OA
ATOM     19  C   UNL     1       0.695   3.266   0.583  0.00  0.00    +0.000 C 
ENDBRANCH   3  18
BRANCH   4  20
ATOM     20  O   UNL     1       4.012   1.524  -0.349  0.00  0.00    +0.000 OA
ATOM     21  C   UNL     1       4.950   2.120   0.510  0.00  0.00    +0.000 C 
ENDBRANCH   4  20
BRANCH   5  22
ATOM     22  O   UNL     1       4.665  -1.187   0.132  0.00  0.00    +0.000 OA
ATOM     23  C   UNL     1       4.846  -2.575   0.403  0.00  0.00    +0.000 C 
ENDBRANCH   5  22
TORSDOF 7
