REMARK  Name = 
REMARK  8 active torsions:
REMARK  status: ('A' for Active; 'I' for Inactive)
REMARK    1  A    between atoms: C_2  and  C_3
REMARK    2  A    between atoms: C_3  and  O_4
REMARK    3  A    between atoms: O_4  and  C_5
REMARK    4  A    between atoms: C_8  and  C_9
REMARK    5  A    between atoms: C_10  and  C_11
REMARK    6  A    between atoms: C_13  and  O_14
REMARK    7  A    between atoms: C_16  and  O_17
REMARK    8  A    between atoms: C_19  and  O_20
REMARK                            x       y       z     vdW  Elec       q    Type
REMARK                         _______ _______ _______ _____ _____    ______ ____
ROOT
ATOM      1  C   UNL     1       0.602  -0.247  -1.643  0.00  0.00    +0.000 C 
ATOM      2  C   UNL     1      -0.517  -0.938  -1.407  0.00  0.00    +0.000 C 
ENDROOT
BRANCH   1   6
ATOM      3  C   UNL     1       4.120  -0.670   0.440  0.00  0.00    +0.000 A 
ATOM      4  C   UNL     1       3.692   0.613   0.151  0.00  0.00    +0.000 A 
ATOM      5  C   UNL     1       2.416   0.837  -0.354  0.00  0.00    +0.000 A 
ATOM      6  C   UNL     1       1.491  -0.193  -0.472  0.00  0.00    +0.000 A 
ATOM      7  C   UNL     1       1.915  -1.424   0.009  0.00  0.00    +0.000 A 
ATOM      8  C   UNL     1       3.173  -1.651   0.507  0.00  0.00    +0.000 A 
BRANCH   3   9
ATOM      9  O   UNL     1       5.466  -1.040   0.405  0.00  0.00    +0.000 OA
BRANCH   9  10
ATOM     10  C   UNL     1       6.444  -0.034   0.655  0.00  0.00    +0.000 C 
BRANCH  10  12
ATOM     11  C   UNL     1       6.753   2.210  -0.434  0.00  0.00    +0.000 C 
ATOM     12  C   UNL     1       6.821   0.707  -0.602  0.00  0.00    +0.000 C 
ENDBRANCH  10  12
ENDBRANCH   9  10
ENDBRANCH   3   9
ENDBRANCH   1   6
BRANCH   2  13
ATOM     13  C   UNL     1      -1.357  -0.340  -0.357  0.00  0.00    +0.000 A 
ATOM     14  C   UNL     1      -2.123  -1.127   0.495  0.00  0.00    +0.000 A 
ATOM     15  C   UNL     1      -3.435  -0.792   0.804  0.00  0.00    +0.000 A 
ATOM     16  C   UNL     1      -4.046   0.312   0.223  0.00  0.00    +0.000 A 
ATOM     17  C   UNL     1      -3.184   1.264  -0.303  0.00  0.00    +0.000 A 
ATOM     18  C   UNL     1      -1.869   0.928  -0.599  0.00  0.00    +0.000 A 
BRANCH  15  19
ATOM     19  O   UNL     1      -4.301  -1.696   1.408  0.00  0.00    +0.000 OA
ATOM     20  C   UNL     1      -3.889  -2.749   2.240  0.00  0.00    +0.000 C 
ENDBRANCH  15  19
BRANCH  16  21
ATOM     21  O   UNL     1      -5.373   0.219  -0.210  0.00  0.00    +0.000 OA
ATOM     22  C   UNL     1      -5.701  -0.389  -1.458  0.00  0.00    +0.000 C 
ENDBRANCH  16  21
BRANCH  17  23
ATOM     23  O   UNL     1      -3.746   2.481  -0.682  0.00  0.00    +0.000 OA
ATOM     24  C   UNL     1      -3.352   3.717  -0.141  0.00  0.00    +0.000 C 
ENDBRANCH  17  23
ENDBRANCH   2  13
TORSDOF 8
