REMARK  Name = 
REMARK  5 active torsions:
REMARK  status: ('A' for Active; 'I' for Inactive)
REMARK    1  A    between atoms: O_2  and  C_3
REMARK    2  A    between atoms: C_6  and  C_7
REMARK    3  A    between atoms: C_8  and  C_9
REMARK    4  A    between atoms: C_11  and  O_12
REMARK    5  A    between atoms: C_15  and  O_16
REMARK                            x       y       z     vdW  Elec       q    Type
REMARK                         _______ _______ _______ _____ _____    ______ ____
ROOT
ATOM      1  C   UNL     1      -0.720  -1.060   0.535  0.00  0.00    +0.000 C 
ATOM      2  C   UNL     1       0.235  -0.924  -0.353  0.00  0.00    +0.000 C 
ENDROOT
BRANCH   1   6
ATOM      3  C   UNL     1      -4.789  -0.394   0.154  0.00  0.00    +0.000 A 
ATOM      4  C   UNL     1      -4.330  -1.331   1.072  0.00  0.00    +0.000 A 
ATOM      5  C   UNL     1      -2.994  -1.714   1.104  0.00  0.00    +0.000 A 
ATOM      6  C   UNL     1      -2.108  -1.264   0.140  0.00  0.00    +0.000 A 
ATOM      7  C   UNL     1      -2.676  -0.644  -0.963  0.00  0.00    +0.000 A 
ATOM      8  C   UNL     1      -4.009  -0.252  -0.987  0.00  0.00    +0.000 A 
BRANCH   3  10
ATOM      9  C   UNL     1      -5.169   1.771   1.184  0.00  0.00    +0.000 C 
ATOM     10  O   UNL     1      -5.686   0.601   0.558  0.00  0.00    +0.000 OA
ENDBRANCH   3  10
ENDBRANCH   1   6
BRANCH   2  11
ATOM     11  C   UNL     1       1.366   0.001  -0.199  0.00  0.00    +0.000 A 
ATOM     12  C   UNL     1       2.112   0.031   0.973  0.00  0.00    +0.000 A 
ATOM     13  C   UNL     1       3.460   0.362   0.924  0.00  0.00    +0.000 A 
ATOM     14  C   UNL     1       4.029   0.759  -0.280  0.00  0.00    +0.000 A 
ATOM     15  C   UNL     1       3.275   0.851  -1.442  0.00  0.00    +0.000 A 
ATOM     16  C   UNL     1       1.933   0.603  -1.316  0.00  0.00    +0.000 A 
BRANCH  13  17
ATOM     17  O   UNL     1       4.252   0.436   2.049  0.00  0.00    +0.000 OA
ATOM     18  C   UNL     1       4.060   1.462   3.010  0.00  0.00    +0.000 C 
ENDBRANCH  13  17
BRANCH  15  19
ATOM     19  O   UNL     1       3.930   0.935  -2.675  0.00  0.00    +0.000 OA
ATOM     20  C   UNL     1       3.830  -0.232  -3.488  0.00  0.00    +0.000 C 
ENDBRANCH  15  19
ENDBRANCH   2  11
TORSDOF 5
