MODEL 1
REMARK VINA RESULT:       0.0      0.000      0.000
REMARK  Name = 
REMARK  5 active torsions:
REMARK  status: ('A' for Active; 'I' for Inactive)
REMARK    1  A    between atoms: O_2  and  C_3
REMARK    2  A    between atoms: C_6  and  C_7
REMARK    3  A    between atoms: C_8  and  C_9
REMARK    4  A    between atoms: C_11  and  O_12
REMARK    5  A    between atoms: C_15  and  O_16
REMARK                            x       y       z     vdW  Elec       q    Type
REMARK                         _______ _______ _______ _____ _____    ______ ____
ROOT
ATOM      1  C   UNL     1       5.796  24.370  67.605  0.00  0.00    +0.000 C 
ATOM      2  C   UNL     1       6.220  24.290  68.843  0.00  0.00    +0.000 C 
ENDROOT
BRANCH   1   6
ATOM      3  C   UNL     1       8.877  23.773  64.905  0.00  0.00    +0.000 A 
ATOM      4  C   UNL     1       7.734  24.453  64.502  0.00  0.00    +0.000 A 
ATOM      5  C   UNL     1       6.609  24.516  65.316  0.00  0.00    +0.000 A 
ATOM      6  C   UNL     1       6.553  23.798  66.499  0.00  0.00    +0.000 A 
ATOM      7  C   UNL     1       7.546  22.847  66.678  0.00  0.00    +0.000 A 
ATOM      8  C   UNL     1       8.675  22.793  65.869  0.00  0.00    +0.000 A 
BRANCH   3  10
ATOM      9  C   UNL     1      10.595  25.358  65.559  0.00  0.00    +0.000 C 
ATOM     10  O   UNL     1      10.140  24.333  64.682  0.00  0.00    +0.000 OA
ENDBRANCH   3  10
ENDBRANCH   1   6
BRANCH   2  11
ATOM     11  C   UNL     1       6.072  25.371  69.828  0.00  0.00    +0.000 A 
ATOM     12  C   UNL     1       7.063  25.624  70.768  0.00  0.00    +0.000 A 
ATOM     13  C   UNL     1       7.262  26.919  71.228  0.00  0.00    +0.000 A 
ATOM     14  C   UNL     1       6.404  27.934  70.823  0.00  0.00    +0.000 A 
ATOM     15  C   UNL     1       5.333  27.682  69.976  0.00  0.00    +0.000 A 
ATOM     16  C   UNL     1       5.129  26.373  69.628  0.00  0.00    +0.000 A 
BRANCH  13  17
ATOM     17  O   UNL     1       8.208  27.237  72.178  0.00  0.00    +0.000 OA
ATOM     18  C   UNL     1       9.357  26.425  72.363  0.00  0.00    +0.000 C 
ENDBRANCH  13  17
BRANCH  15  19
ATOM     19  O   UNL     1       4.699  28.755  69.341  0.00  0.00    +0.000 OA
ATOM     20  C   UNL     1       4.406  28.548  67.962  0.00  0.00    +0.000 C 
ENDBRANCH  15  19
ENDBRANCH   2  11
TORSDOF 5
ENDMDL
MODEL 2
REMARK VINA RESULT:       0.0      1.616      2.216
REMARK  Name = 
REMARK  5 active torsions:
REMARK  status: ('A' for Active; 'I' for Inactive)
REMARK    1  A    between atoms: O_2  and  C_3
REMARK    2  A    between atoms: C_6  and  C_7
REMARK    3  A    between atoms: C_8  and  C_9
REMARK    4  A    between atoms: C_11  and  O_12
REMARK    5  A    between atoms: C_15  and  O_16
REMARK                            x       y       z     vdW  Elec       q    Type
REMARK                         _______ _______ _______ _____ _____    ______ ____
ROOT
ATOM      1  C   UNL     1       6.107  23.364  68.865  0.00  0.00    +0.000 C 
ATOM      2  C   UNL     1       6.865  22.999  69.871  0.00  0.00    +0.000 C 
ENDROOT
BRANCH   1   6
ATOM      3  C   UNL     1       8.036  22.826  65.241  0.00  0.00    +0.000 A 
ATOM      4  C   UNL     1       6.982  23.727  65.330  0.00  0.00    +0.000 A 
ATOM      5  C   UNL     1       6.195  23.804  66.473  0.00  0.00    +0.000 A 
ATOM      6  C   UNL     1       6.362  22.899  67.508  0.00  0.00    +0.000 A 
ATOM      7  C   UNL     1       7.155  21.796  67.226  0.00  0.00    +0.000 A 
ATOM      8  C   UNL     1       7.950  21.728  66.088  0.00  0.00    +0.000 A 
BRANCH   3  10
ATOM      9  C   UNL     1      10.148  23.999  65.479  0.00  0.00    +0.000 C 
ATOM     10  O   UNL     1       9.255  23.228  64.683  0.00  0.00    +0.000 OA
ENDBRANCH   3  10
ENDBRANCH   1   6
BRANCH   2  11
ATOM     11  C   UNL     1       7.239  23.893  70.976  0.00  0.00    +0.000 A 
ATOM     12  C   UNL     1       8.500  23.824  71.557  0.00  0.00    +0.000 A 
ATOM     13  C   UNL     1       9.080  24.971  72.083  0.00  0.00    +0.000 A 
ATOM     14  C   UNL     1       8.356  26.156  72.117  0.00  0.00    +0.000 A 
ATOM     15  C   UNL     1       7.050  26.221  71.650  0.00  0.00    +0.000 A 
ATOM     16  C   UNL     1       6.497  25.040  71.228  0.00  0.00    +0.000 A 
BRANCH  13  17
ATOM     17  O   UNL     1      10.314  24.969  72.695  0.00  0.00    +0.000 OA
ATOM     18  C   UNL     1      11.282  23.979  72.385  0.00  0.00    +0.000 C 
ENDBRANCH  13  17
BRANCH  15  19
ATOM     19  O   UNL     1       6.476  27.472  71.402  0.00  0.00    +0.000 OA
ATOM     20  C   UNL     1       5.741  27.564  70.183  0.00  0.00    +0.000 C 
ENDBRANCH  15  19
ENDBRANCH   2  11
TORSDOF 5
ENDMDL
MODEL 3
REMARK VINA RESULT:       0.0     21.295     24.127
REMARK  Name = 
REMARK  5 active torsions:
REMARK  status: ('A' for Active; 'I' for Inactive)
REMARK    1  A    between atoms: O_2  and  C_3
REMARK    2  A    between atoms: C_6  and  C_7
REMARK    3  A    between atoms: C_8  and  C_9
REMARK    4  A    between atoms: C_11  and  O_12
REMARK    5  A    between atoms: C_15  and  O_16
REMARK                            x       y       z     vdW  Elec       q    Type
REMARK                         _______ _______ _______ _____ _____    ______ ____
ROOT
ATOM      1  C   UNL     1       7.895   2.261  64.517  0.00  0.00    +0.000 C 
ATOM      2  C   UNL     1       7.507   2.886  63.432  0.00  0.00    +0.000 C 
ENDROOT
BRANCH   1   6
ATOM      3  C   UNL     1       6.927  -1.762  64.373  0.00  0.00    +0.000 A 
ATOM      4  C   UNL     1       7.143  -1.152  65.603  0.00  0.00    +0.000 A 
ATOM      5  C   UNL     1       7.644   0.142  65.687  0.00  0.00    +0.000 A 
ATOM      6  C   UNL     1       8.059   0.813  64.549  0.00  0.00    +0.000 A 
ATOM      7  C   UNL     1       8.180   0.043  63.402  0.00  0.00    +0.000 A 
ATOM      8  C   UNL     1       7.668  -1.245  63.317  0.00  0.00    +0.000 A 
BRANCH   3  10
ATOM      9  C   UNL     1       4.537  -1.813  63.949  0.00  0.00    +0.000 C 
ATOM     10  O   UNL     1       5.762  -2.508  64.156  0.00  0.00    +0.000 OA
ENDBRANCH   3  10
ENDBRANCH   1   6
BRANCH   2  11
ATOM     11  C   UNL     1       6.598   4.040  63.436  0.00  0.00    +0.000 A 
ATOM     12  C   UNL     1       5.643   4.203  62.440  0.00  0.00    +0.000 A 
ATOM     13  C   UNL     1       4.442   4.835  62.733  0.00  0.00    +0.000 A 
ATOM     14  C   UNL     1       4.244   5.389  63.992  0.00  0.00    +0.000 A 
ATOM     15  C   UNL     1       5.231   5.343  64.967  0.00  0.00    +0.000 A 
ATOM     16  C   UNL     1       6.428   4.791  64.593  0.00  0.00    +0.000 A 
BRANCH  13  17
ATOM     17  O   UNL     1       3.462   5.052  61.789  0.00  0.00    +0.000 OA
ATOM     18  C   UNL     1       3.378   4.244  60.626  0.00  0.00    +0.000 C 
ENDBRANCH  13  17
BRANCH  15  19
ATOM     19  O   UNL     1       4.889   5.614  66.296  0.00  0.00    +0.000 OA
ATOM     20  C   UNL     1       5.456   4.723  67.254  0.00  0.00    +0.000 C 
ENDBRANCH  15  19
ENDBRANCH   2  11
TORSDOF 5
ENDMDL
MODEL 4
REMARK VINA RESULT:       0.0     21.230     22.802
REMARK  Name = 
REMARK  5 active torsions:
REMARK  status: ('A' for Active; 'I' for Inactive)
REMARK    1  A    between atoms: O_2  and  C_3
REMARK    2  A    between atoms: C_6  and  C_7
REMARK    3  A    between atoms: C_8  and  C_9
REMARK    4  A    between atoms: C_11  and  O_12
REMARK    5  A    between atoms: C_15  and  O_16
REMARK                            x       y       z     vdW  Elec       q    Type
REMARK                         _______ _______ _______ _____ _____    ______ ____
ROOT
ATOM      1  C   UNL     1       8.891   6.722  82.953  0.00  0.00    +0.000 C 
ATOM      2  C   UNL     1       9.340   7.887  82.552  0.00  0.00    +0.000 C 
ENDROOT
BRANCH   1   6
ATOM      3  C   UNL     1       7.014   4.619  79.920  0.00  0.00    +0.000 A 
ATOM      4  C   UNL     1       6.774   4.273  81.244  0.00  0.00    +0.000 A 
ATOM      5  C   UNL     1       7.517   4.829  82.280  0.00  0.00    +0.000 A 
ATOM      6  C   UNL     1       8.599   5.649  82.010  0.00  0.00    +0.000 A 
ATOM      7  C   UNL     1       9.034   5.665  80.693  0.00  0.00    +0.000 A 
ATOM      8  C   UNL     1       8.284   5.119  79.659  0.00  0.00    +0.000 A 
BRANCH   3  10
ATOM      9  C   UNL     1       5.247   6.091  79.143  0.00  0.00    +0.000 C 
ATOM     10  O   UNL     1       5.941   4.851  79.051  0.00  0.00    +0.000 OA
ENDBRANCH   3  10
ENDBRANCH   1   6
BRANCH   2  11
ATOM     11  C   UNL     1       8.936   9.166  83.151  0.00  0.00    +0.000 A 
ATOM     12  C   UNL     1       8.790  10.307  82.372  0.00  0.00    +0.000 A 
ATOM     13  C   UNL     1       7.855  11.270  82.728  0.00  0.00    +0.000 A 
ATOM     14  C   UNL     1       7.145  11.136  83.915  0.00  0.00    +0.000 A 
ATOM     15  C   UNL     1       7.360  10.064  84.770  0.00  0.00    +0.000 A 
ATOM     16  C   UNL     1       8.358   9.194  84.415  0.00  0.00    +0.000 A 
BRANCH  13  17
ATOM     17  O   UNL     1       7.675  12.436  82.016  0.00  0.00    +0.000 OA
ATOM     18  C   UNL     1       7.840  12.463  80.607  0.00  0.00    +0.000 C 
ENDBRANCH  13  17
BRANCH  15  19
ATOM     19  O   UNL     1       6.421   9.791  85.771  0.00  0.00    +0.000 OA
ATOM     20  C   UNL     1       6.123   8.408  85.952  0.00  0.00    +0.000 C 
ENDBRANCH  15  19
ENDBRANCH   2  11
TORSDOF 5
ENDMDL
MODEL 5
REMARK VINA RESULT:       0.0     25.855     27.435
REMARK  Name = 
REMARK  5 active torsions:
REMARK  status: ('A' for Active; 'I' for Inactive)
REMARK    1  A    between atoms: O_2  and  C_3
REMARK    2  A    between atoms: C_6  and  C_7
REMARK    3  A    between atoms: C_8  and  C_9
REMARK    4  A    between atoms: C_11  and  O_12
REMARK    5  A    between atoms: C_15  and  O_16
REMARK                            x       y       z     vdW  Elec       q    Type
REMARK                         _______ _______ _______ _____ _____    ______ ____
ROOT
ATOM      1  C   UNL     1      17.537  26.916  45.057  0.00  0.00    +0.000 C 
ATOM      2  C   UNL     1      17.442  25.622  45.249  0.00  0.00    +0.000 C 
ENDROOT
BRANCH   1   6
ATOM      3  C   UNL     1      15.196  28.107  41.856  0.00  0.00    +0.000 A 
ATOM      4  C   UNL     1      16.285  28.883  42.237  0.00  0.00    +0.000 A 
ATOM      5  C   UNL     1      16.984  28.619  43.409  0.00  0.00    +0.000 A 
ATOM      6  C   UNL     1      16.537  27.651  44.293  0.00  0.00    +0.000 A 
ATOM      7  C   UNL     1      15.257  27.169  44.068  0.00  0.00    +0.000 A 
ATOM      8  C   UNL     1      14.566  27.425  42.890  0.00  0.00    +0.000 A 
BRANCH   3  10
ATOM      9  C   UNL     1      15.863  26.660  40.025  0.00  0.00    +0.000 C 
ATOM     10  O   UNL     1      15.047  27.716  40.521  0.00  0.00    +0.000 OA
ENDBRANCH   3  10
ENDBRANCH   1   6
BRANCH   2  11
ATOM     11  C   UNL     1      18.595  24.711  45.245  0.00  0.00    +0.000 A 
ATOM     12  C   UNL     1      18.479  23.412  44.764  0.00  0.00    +0.000 A 
ATOM     13  C   UNL     1      19.573  22.797  44.169  0.00  0.00    +0.000 A 
ATOM     14  C   UNL     1      20.802  23.446  44.149  0.00  0.00    +0.000 A 
ATOM     15  C   UNL     1      20.971  24.695  44.729  0.00  0.00    +0.000 A 
ATOM     16  C   UNL     1      19.883  25.213  45.383  0.00  0.00    +0.000 A 
BRANCH  13  17
ATOM     17  O   UNL     1      19.536  21.505  43.694  0.00  0.00    +0.000 OA
ATOM     18  C   UNL     1      18.325  20.936  43.219  0.00  0.00    +0.000 C 
ENDBRANCH  13  17
BRANCH  15  19
ATOM     19  O   UNL     1      22.108  25.445  44.414  0.00  0.00    +0.000 OA
ATOM     20  C   UNL     1      21.868  26.831  44.182  0.00  0.00    +0.000 C 
ENDBRANCH  15  19
ENDBRANCH   2  11
TORSDOF 5
ENDMDL
MODEL 6
REMARK VINA RESULT:       0.0     20.990     22.650
REMARK  Name = 
REMARK  5 active torsions:
REMARK  status: ('A' for Active; 'I' for Inactive)
REMARK    1  A    between atoms: O_2  and  C_3
REMARK    2  A    between atoms: C_6  and  C_7
REMARK    3  A    between atoms: C_8  and  C_9
REMARK    4  A    between atoms: C_11  and  O_12
REMARK    5  A    between atoms: C_15  and  O_16
REMARK                            x       y       z     vdW  Elec       q    Type
REMARK                         _______ _______ _______ _____ _____    ______ ____
ROOT
ATOM      1  C   UNL     1      -0.700   6.292  71.205  0.00  0.00    +0.000 C 
ATOM      2  C   UNL     1      -0.168   6.724  72.323  0.00  0.00    +0.000 C 
ENDROOT
BRANCH   1   6
ATOM      3  C   UNL     1      -4.605   7.580  70.713  0.00  0.00    +0.000 A 
ATOM      4  C   UNL     1      -4.145   6.490  69.984  0.00  0.00    +0.000 A 
ATOM      5  C   UNL     1      -2.800   6.139  69.983  0.00  0.00    +0.000 A 
ATOM      6  C   UNL     1      -1.861   6.941  70.610  0.00  0.00    +0.000 A 
ATOM      7  C   UNL     1      -2.300   8.200  70.995  0.00  0.00    +0.000 A 
ATOM      8  C   UNL     1      -3.647   8.543  71.006  0.00  0.00    +0.000 A 
BRANCH   3  10
ATOM      9  C   UNL     1      -5.796   6.717  72.644  0.00  0.00    +0.000 C 
ATOM     10  O   UNL     1      -5.794   7.483  71.443  0.00  0.00    +0.000 OA
ENDBRANCH   3  10
ENDBRANCH   1   6
BRANCH   2  11
ATOM     11  C   UNL     1       0.370   5.840  73.366  0.00  0.00    +0.000 A 
ATOM     12  C   UNL     1       0.227   6.152  74.712  0.00  0.00    +0.000 A 
ATOM     13  C   UNL     1       0.123   5.132  75.649  0.00  0.00    +0.000 A 
ATOM     14  C   UNL     1       0.264   3.810  75.247  0.00  0.00    +0.000 A 
ATOM     15  C   UNL     1       0.525   3.479  73.924  0.00  0.00    +0.000 A 
ATOM     16  C   UNL     1       0.710   4.527  73.061  0.00  0.00    +0.000 A 
BRANCH  13  17
ATOM     17  O   UNL     1       0.006   5.370  77.001  0.00  0.00    +0.000 OA
ATOM     18  C   UNL     1      -0.634   6.541  77.484  0.00  0.00    +0.000 C 
ENDBRANCH  13  17
BRANCH  15  19
ATOM     19  O   UNL     1       0.340   2.158  73.503  0.00  0.00    +0.000 OA
ATOM     20  C   UNL     1      -0.333   2.016  72.254  0.00  0.00    +0.000 C 
ENDBRANCH  15  19
ENDBRANCH   2  11
TORSDOF 5
ENDMDL
MODEL 7
REMARK VINA RESULT:       0.0      5.968      8.385
REMARK  Name = 
REMARK  5 active torsions:
REMARK  status: ('A' for Active; 'I' for Inactive)
REMARK    1  A    between atoms: O_2  and  C_3
REMARK    2  A    between atoms: C_6  and  C_7
REMARK    3  A    between atoms: C_8  and  C_9
REMARK    4  A    between atoms: C_11  and  O_12
REMARK    5  A    between atoms: C_15  and  O_16
REMARK                            x       y       z     vdW  Elec       q    Type
REMARK                         _______ _______ _______ _____ _____    ______ ____
ROOT
ATOM      1  C   UNL     1       5.694  22.054  62.024  0.00  0.00    +0.000 C 
ATOM      2  C   UNL     1       4.888  21.696  62.993  0.00  0.00    +0.000 C 
ENDROOT
BRANCH   1   6
ATOM      3  C   UNL     1       5.547  19.378  58.868  0.00  0.00    +0.000 A 
ATOM      4  C   UNL     1       6.663  20.191  59.027  0.00  0.00    +0.000 A 
ATOM      5  C   UNL     1       6.676  21.222  59.958  0.00  0.00    +0.000 A 
ATOM      6  C   UNL     1       5.532  21.547  60.667  0.00  0.00    +0.000 A 
ATOM      7  C   UNL     1       4.354  20.972  60.214  0.00  0.00    +0.000 A 
ATOM      8  C   UNL     1       4.345  19.933  59.292  0.00  0.00    +0.000 A 
BRANCH   3  10
ATOM      9  C   UNL     1       6.038  17.217  59.859  0.00  0.00    +0.000 C 
ATOM     10  O   UNL     1       5.703  17.996  58.715  0.00  0.00    +0.000 OA
ENDBRANCH   3  10
ENDBRANCH   1   6
BRANCH   2  11
ATOM     11  C   UNL     1       5.329  21.450  64.373  0.00  0.00    +0.000 A 
ATOM     12  C   UNL     1       4.728  20.470  65.153  0.00  0.00    +0.000 A 
ATOM     13  C   UNL     1       5.473  19.804  66.118  0.00  0.00    +0.000 A 
ATOM     14  C   UNL     1       6.784  20.192  66.366  0.00  0.00    +0.000 A 
ATOM     15  C   UNL     1       7.369  21.248  65.681  0.00  0.00    +0.000 A 
ATOM     16  C   UNL     1       6.559  21.928  64.808  0.00  0.00    +0.000 A 
BRANCH  13  17
ATOM     17  O   UNL     1       4.935  18.840  66.943  0.00  0.00    +0.000 OA
ATOM     18  C   UNL     1       3.889  17.995  66.492  0.00  0.00    +0.000 C 
ENDBRANCH  13  17
BRANCH  15  19
ATOM     19  O   UNL     1       8.759  21.399  65.719  0.00  0.00    +0.000 OA
ATOM     20  C   UNL     1       9.368  21.663  64.457  0.00  0.00    +0.000 C 
ENDBRANCH  15  19
ENDBRANCH   2  11
TORSDOF 5
ENDMDL
MODEL 8
REMARK VINA RESULT:       0.0      7.539     10.362
REMARK  Name = 
REMARK  5 active torsions:
REMARK  status: ('A' for Active; 'I' for Inactive)
REMARK    1  A    between atoms: O_2  and  C_3
REMARK    2  A    between atoms: C_6  and  C_7
REMARK    3  A    between atoms: C_8  and  C_9
REMARK    4  A    between atoms: C_11  and  O_12
REMARK    5  A    between atoms: C_15  and  O_16
REMARK                            x       y       z     vdW  Elec       q    Type
REMARK                         _______ _______ _______ _____ _____    ______ ____
ROOT
ATOM      1  C   UNL     1       8.350  32.358  67.892  0.00  0.00    +0.000 C 
ATOM      2  C   UNL     1       9.235  32.775  67.020  0.00  0.00    +0.000 C 
ENDROOT
BRANCH   1   6
ATOM      3  C   UNL     1       6.112  35.466  69.466  0.00  0.00    +0.000 A 
ATOM      4  C   UNL     1       6.176  34.254  70.145  0.00  0.00    +0.000 A 
ATOM      5  C   UNL     1       6.763  33.135  69.566  0.00  0.00    +0.000 A 
ATOM      6  C   UNL     1       7.188  33.163  68.249  0.00  0.00    +0.000 A 
ATOM      7  C   UNL     1       6.768  34.252  67.499  0.00  0.00    +0.000 A 
ATOM      8  C   UNL     1       6.193  35.374  68.082  0.00  0.00    +0.000 A 
BRANCH   3  10
ATOM      9  C   UNL     1       7.747  37.034  70.337  0.00  0.00    +0.000 C 
ATOM     10  O   UNL     1       6.387  36.661  70.140  0.00  0.00    +0.000 OA
ENDBRANCH   3  10
ENDBRANCH   1   6
BRANCH   2  11
ATOM     11  C   UNL     1      10.680  32.543  67.150  0.00  0.00    +0.000 A 
ATOM     12  C   UNL     1      11.599  33.506  66.751  0.00  0.00    +0.000 A 
ATOM     13  C   UNL     1      12.819  33.609  67.407  0.00  0.00    +0.000 A 
ATOM     14  C   UNL     1      13.153  32.685  68.389  0.00  0.00    +0.000 A 
ATOM     15  C   UNL     1      12.300  31.641  68.723  0.00  0.00    +0.000 A 
ATOM     16  C   UNL     1      11.154  31.534  67.980  0.00  0.00    +0.000 A 
BRANCH  13  17
ATOM     17  O   UNL     1      13.785  34.523  67.048  0.00  0.00    +0.000 OA
ATOM     18  C   UNL     1      13.430  35.788  66.513  0.00  0.00    +0.000 C 
ENDBRANCH  13  17
BRANCH  15  19
ATOM     19  O   UNL     1      12.516  30.938  69.912  0.00  0.00    +0.000 OA
ATOM     20  C   UNL     1      11.346  30.714  70.697  0.00  0.00    +0.000 C 
ENDBRANCH  15  19
ENDBRANCH   2  11
TORSDOF 5
ENDMDL
MODEL 9
REMARK VINA RESULT:       0.0     18.591     20.426
REMARK  Name = 
REMARK  5 active torsions:
REMARK  status: ('A' for Active; 'I' for Inactive)
REMARK    1  A    between atoms: O_2  and  C_3
REMARK    2  A    between atoms: C_6  and  C_7
REMARK    3  A    between atoms: C_8  and  C_9
REMARK    4  A    between atoms: C_11  and  O_12
REMARK    5  A    between atoms: C_15  and  O_16
REMARK                            x       y       z     vdW  Elec       q    Type
REMARK                         _______ _______ _______ _____ _____    ______ ____
ROOT
ATOM      1  C   UNL     1      15.843  19.326  53.831  0.00  0.00    +0.000 C 
ATOM      2  C   UNL     1      15.100  18.286  53.537  0.00  0.00    +0.000 C 
ENDROOT
BRANCH   1   6
ATOM      3  C   UNL     1      16.778  21.481  50.422  0.00  0.00    +0.000 A 
ATOM      4  C   UNL     1      17.600  21.573  51.539  0.00  0.00    +0.000 A 
ATOM      5  C   UNL     1      17.228  21.013  52.756  0.00  0.00    +0.000 A 
ATOM      6  C   UNL     1      15.971  20.456  52.921  0.00  0.00    +0.000 A 
ATOM      7  C   UNL     1      15.054  20.720  51.914  0.00  0.00    +0.000 A 
ATOM      8  C   UNL     1      15.432  21.269  50.694  0.00  0.00    +0.000 A 
BRANCH   3  10
ATOM      9  C   UNL     1      17.623  19.833  48.853  0.00  0.00    +0.000 C 
ATOM     10  O   UNL     1      17.328  21.190  49.169  0.00  0.00    +0.000 OA
ENDBRANCH   3  10
ENDBRANCH   1   6
BRANCH   2  11
ATOM     11  C   UNL     1      15.467  16.902  53.868  0.00  0.00    +0.000 A 
ATOM     12  C   UNL     1      15.185  15.858  52.996  0.00  0.00    +0.000 A 
ATOM     13  C   UNL     1      16.023  14.752  52.951  0.00  0.00    +0.000 A 
ATOM     14  C   UNL     1      17.079  14.650  53.849  0.00  0.00    +0.000 A 
ATOM     15  C   UNL     1      17.309  15.625  54.810  0.00  0.00    +0.000 A 
ATOM     16  C   UNL     1      16.397  16.647  54.868  0.00  0.00    +0.000 A 
BRANCH  13  17
ATOM     17  O   UNL     1      15.790  13.671  52.129  0.00  0.00    +0.000 OA
ATOM     18  C   UNL     1      14.979  13.796  50.972  0.00  0.00    +0.000 C 
ENDBRANCH  13  17
BRANCH  15  19
ATOM     19  O   UNL     1      18.543  15.655  55.469  0.00  0.00    +0.000 OA
ATOM     20  C   UNL     1      19.164  16.937  55.520  0.00  0.00    +0.000 C 
ENDBRANCH  15  19
ENDBRANCH   2  11
TORSDOF 5
ENDMDL
MODEL 10
REMARK VINA RESULT:       0.0     12.061     15.124
REMARK  Name = 
REMARK  5 active torsions:
REMARK  status: ('A' for Active; 'I' for Inactive)
REMARK    1  A    between atoms: O_2  and  C_3
REMARK    2  A    between atoms: C_6  and  C_7
REMARK    3  A    between atoms: C_8  and  C_9
REMARK    4  A    between atoms: C_11  and  O_12
REMARK    5  A    between atoms: C_15  and  O_16
REMARK                            x       y       z     vdW  Elec       q    Type
REMARK                         _______ _______ _______ _____ _____    ______ ____
ROOT
ATOM      1  C   UNL     1      -6.027  27.356  72.668  0.00  0.00    +0.000 C 
ATOM      2  C   UNL     1      -5.383  27.237  71.532  0.00  0.00    +0.000 C 
ENDROOT
BRANCH   1   6
ATOM      3  C   UNL     1     -10.115  27.503  72.027  0.00  0.00    +0.000 A 
ATOM      4  C   UNL     1      -9.580  28.066  73.180  0.00  0.00    +0.000 A 
ATOM      5  C   UNL     1      -8.245  27.881  73.520  0.00  0.00    +0.000 A 
ATOM      6  C   UNL     1      -7.442  27.027  72.784  0.00  0.00    +0.000 A 
ATOM      7  C   UNL     1      -8.099  26.202  71.883  0.00  0.00    +0.000 A 
ATOM      8  C   UNL     1      -9.430  26.398  71.536  0.00  0.00    +0.000 A 
BRANCH   3  10
ATOM      9  C   UNL     1     -10.415  29.124  70.246  0.00  0.00    +0.000 C 
ATOM     10  O   UNL     1     -10.978  28.249  71.218  0.00  0.00    +0.000 OA
ENDBRANCH   3  10
ENDBRANCH   1   6
BRANCH   2  11
ATOM     11  C   UNL     1      -4.355  28.181  71.074  0.00  0.00    +0.000 A 
ATOM     12  C   UNL     1      -4.190  28.461  69.723  0.00  0.00    +0.000 A 
ATOM     13  C   UNL     1      -3.745  29.716  69.328  0.00  0.00    +0.000 A 
ATOM     14  C   UNL     1      -3.371  30.648  70.288  0.00  0.00    +0.000 A 
ATOM     15  C   UNL     1      -3.414  30.349  71.643  0.00  0.00    +0.000 A 
ATOM     16  C   UNL     1      -3.771  29.068  71.971  0.00  0.00    +0.000 A 
BRANCH  13  17
ATOM     17  O   UNL     1      -3.536  30.053  68.009  0.00  0.00    +0.000 OA
ATOM     18  C   UNL     1      -4.314  29.470  66.975  0.00  0.00    +0.000 C 
ENDBRANCH  13  17
BRANCH  15  19
ATOM     19  O   UNL     1      -3.345  31.391  72.574  0.00  0.00    +0.000 OA
ATOM     20  C   UNL     1      -4.247  31.276  73.672  0.00  0.00    +0.000 C 
ENDBRANCH  15  19
ENDBRANCH   2  11
TORSDOF 5
ENDMDL
