REMARK  Name = 
REMARK  4 active torsions:
REMARK  status: ('A' for Active; 'I' for Inactive)
REMARK    1  A    between atoms: O_2  and  C_3
REMARK    2  A    between atoms: C_5  and  C_6
REMARK    3  A    between atoms: C_7  and  C_8
REMARK    4  A    between atoms: C_11  and  O_12
REMARK                            x       y       z     vdW  Elec       q    Type
REMARK                         _______ _______ _______ _____ _____    ______ ____
ROOT
ATOM      1  C   UNL     1      -2.407   0.774   0.628  0.00  0.00    +0.000 A 
ATOM      2  C   UNL     1      -1.253   0.357  -0.024  0.00  0.00    +0.000 A 
ATOM      3  C   UNL     1      -1.062  -0.965  -0.407  0.00  0.00    +0.000 A 
ATOM      4  C   UNL     1      -2.187  -1.774  -0.288  0.00  0.00    +0.000 A 
ATOM      5  C   UNL     1      -3.426  -1.270   0.088  0.00  0.00    +0.000 A 
ATOM      6  C   UNL     1      -3.573   0.088   0.335  0.00  0.00    +0.000 A 
ATOM      7  O   UNL     1      -4.893   0.457   0.058  0.00  0.00    +0.000 OA
ATOM      8  C   UNL     1      -5.594  -0.678  -0.446  0.00  0.00    +0.000 C 
ATOM      9  O   UNL     1      -4.741  -1.735  -0.022  0.00  0.00    +0.000 OA
ENDROOT
BRANCH   1  11
ATOM     10  C   UNL     1      -3.633   2.890   0.430  0.00  0.00    +0.000 C 
ATOM     11  O   UNL     1      -2.507   2.137   0.858  0.00  0.00    +0.000 OA
ENDBRANCH   1  11
BRANCH   3  12
ATOM     12  C   UNL     1      -0.150  -1.324  -1.502  0.00  0.00    +0.000 C 
ATOM     13  C   UNL     1       0.911  -0.563  -1.644  0.00  0.00    +0.000 C 
BRANCH  13  14
ATOM     14  C   UNL     1       1.732  -0.382  -0.438  0.00  0.00    +0.000 A 
ATOM     15  C   UNL     1       1.983   0.903   0.029  0.00  0.00    +0.000 A 
ATOM     16  C   UNL     1       3.196   1.299   0.526  0.00  0.00    +0.000 A 
ATOM     17  C   UNL     1       4.296   0.462   0.399  0.00  0.00    +0.000 A 
ATOM     18  C   UNL     1       3.998  -0.889   0.280  0.00  0.00    +0.000 A 
ATOM     19  N   UNL     1       5.121  -1.776   0.340  0.00  0.00    +0.000 NA
ATOM     20  C   UNL     1       2.807  -1.259  -0.334  0.00  0.00    +0.000 A 
BRANCH  17  21
ATOM     21  O   UNL     1       5.579   0.963   0.155  0.00  0.00    +0.000 OA
ATOM     22  C   UNL     1       5.801   2.287  -0.260  0.00  0.00    +0.000 C 
ENDBRANCH  17  21
ENDBRANCH  13  14
ENDBRANCH   3  12
TORSDOF 4
