MODEL 1
REMARK VINA RESULT:      -0.0      0.000      0.000
REMARK  Name = 
REMARK  4 active torsions:
REMARK  status: ('A' for Active; 'I' for Inactive)
REMARK    1  A    between atoms: O_2  and  C_3
REMARK    2  A    between atoms: C_5  and  C_6
REMARK    3  A    between atoms: C_7  and  C_8
REMARK    4  A    between atoms: C_11  and  O_12
REMARK                            x       y       z     vdW  Elec       q    Type
REMARK                         _______ _______ _______ _____ _____    ______ ____
ROOT
ATOM      1  C   UNL     1       3.426   7.816  53.007  0.00  0.00    +0.000 A 
ATOM      2  C   UNL     1       3.080   6.470  53.044  0.00  0.00    +0.000 A 
ATOM      3  C   UNL     1       1.954   5.982  52.393  0.00  0.00    +0.000 A 
ATOM      4  C   UNL     1       1.339   6.889  51.536  0.00  0.00    +0.000 A 
ATOM      5  C   UNL     1       1.872   8.146  51.279  0.00  0.00    +0.000 A 
ATOM      6  C   UNL     1       3.071   8.521  51.870  0.00  0.00    +0.000 A 
ATOM      7  O   UNL     1       3.713   9.446  51.041  0.00  0.00    +0.000 OA
ATOM      8  C   UNL     1       2.941   9.616  49.854  0.00  0.00    +0.000 C 
ATOM      9  O   UNL     1       1.684   9.097  50.271  0.00  0.00    +0.000 OA
ENDROOT
BRANCH   1  11
ATOM     10  C   UNL     1       5.830   7.444  53.326  0.00  0.00    +0.000 C 
ATOM     11  O   UNL     1       4.628   8.144  53.615  0.00  0.00    +0.000 OA
ENDBRANCH   1  11
BRANCH   3  12
ATOM     12  C   UNL     1       1.851   4.574  51.987  0.00  0.00    +0.000 C 
ATOM     13  C   UNL     1       1.559   3.718  52.940  0.00  0.00    +0.000 C 
BRANCH  13  14
ATOM     14  C   UNL     1       0.361   4.030  53.733  0.00  0.00    +0.000 A 
ATOM     15  C   UNL     1       0.417   3.938  55.119  0.00  0.00    +0.000 A 
ATOM     16  C   UNL     1      -0.601   3.432  55.881  0.00  0.00    +0.000 A 
ATOM     17  C   UNL     1      -1.673   2.803  55.263  0.00  0.00    +0.000 A 
ATOM     18  C   UNL     1      -1.911   3.194  53.952  0.00  0.00    +0.000 A 
ATOM     19  N   UNL     1      -3.121   2.697  53.370  0.00  0.00    +0.000 NA
ATOM     20  C   UNL     1      -0.834   3.595  53.169  0.00  0.00    +0.000 A 
BRANCH  17  21
ATOM     21  O   UNL     1      -2.299   1.687  55.829  0.00  0.00    +0.000 OA
ATOM     22  C   UNL     1      -1.670   0.433  55.906  0.00  0.00    +0.000 C 
ENDBRANCH  17  21
ENDBRANCH  13  14
ENDBRANCH   3  12
TORSDOF 4
ENDMDL
MODEL 2
REMARK VINA RESULT:      -0.0      8.331     10.915
REMARK  Name = 
REMARK  4 active torsions:
REMARK  status: ('A' for Active; 'I' for Inactive)
REMARK    1  A    between atoms: O_2  and  C_3
REMARK    2  A    between atoms: C_5  and  C_6
REMARK    3  A    between atoms: C_7  and  C_8
REMARK    4  A    between atoms: C_11  and  O_12
REMARK                            x       y       z     vdW  Elec       q    Type
REMARK                         _______ _______ _______ _____ _____    ______ ____
ROOT
ATOM      1  C   UNL     1       9.535   5.030  54.824  0.00  0.00    +0.000 A 
ATOM      2  C   UNL     1       8.821   5.198  53.644  0.00  0.00    +0.000 A 
ATOM      3  C   UNL     1       9.037   4.392  52.533  0.00  0.00    +0.000 A 
ATOM      4  C   UNL     1       9.848   3.286  52.765  0.00  0.00    +0.000 A 
ATOM      5  C   UNL     1      10.317   2.964  54.033  0.00  0.00    +0.000 A 
ATOM      6  C   UNL     1       9.958   3.746  55.122  0.00  0.00    +0.000 A 
ATOM      7  O   UNL     1       9.966   2.950  56.272  0.00  0.00    +0.000 OA
ATOM      8  C   UNL     1      10.271   1.607  55.902  0.00  0.00    +0.000 C 
ATOM      9  O   UNL     1      10.840   1.802  54.612  0.00  0.00    +0.000 OA
ENDROOT
BRANCH   1  11
ATOM     10  C   UNL     1       7.790   5.922  56.300  0.00  0.00    +0.000 C 
ATOM     11  O   UNL     1       9.145   5.836  55.882  0.00  0.00    +0.000 OA
ENDBRANCH   1  11
BRANCH   3  12
ATOM     12  C   UNL     1       8.000   4.200  51.510  0.00  0.00    +0.000 C 
ATOM     13  C   UNL     1       7.840   5.186  50.657  0.00  0.00    +0.000 C 
BRANCH  13  14
ATOM     14  C   UNL     1       9.056   5.634  49.964  0.00  0.00    +0.000 A 
ATOM     15  C   UNL     1       9.327   6.995  49.872  0.00  0.00    +0.000 A 
ATOM     16  C   UNL     1       9.838   7.586  48.748  0.00  0.00    +0.000 A 
ATOM     17  C   UNL     1       9.926   6.858  47.569  0.00  0.00    +0.000 A 
ATOM     18  C   UNL     1      10.005   5.481  47.732  0.00  0.00    +0.000 A 
ATOM     19  N   UNL     1      10.287   4.735  46.542  0.00  0.00    +0.000 NA
ATOM     20  C   UNL     1       9.376   4.900  48.826  0.00  0.00    +0.000 A 
BRANCH  17  21
ATOM     21  O   UNL     1       9.696   7.446  46.321  0.00  0.00    +0.000 OA
ATOM     22  C   UNL     1       8.422   7.879  45.919  0.00  0.00    +0.000 C 
ENDBRANCH  17  21
ENDBRANCH  13  14
ENDBRANCH   3  12
TORSDOF 4
ENDMDL
MODEL 3
REMARK VINA RESULT:      -0.0      5.637      6.432
REMARK  Name = 
REMARK  4 active torsions:
REMARK  status: ('A' for Active; 'I' for Inactive)
REMARK    1  A    between atoms: O_2  and  C_3
REMARK    2  A    between atoms: C_5  and  C_6
REMARK    3  A    between atoms: C_7  and  C_8
REMARK    4  A    between atoms: C_11  and  O_12
REMARK                            x       y       z     vdW  Elec       q    Type
REMARK                         _______ _______ _______ _____ _____    ______ ____
ROOT
ATOM      1  C   UNL     1      -0.434   7.061  54.523  0.00  0.00    +0.000 A 
ATOM      2  C   UNL     1      -1.720   6.683  54.890  0.00  0.00    +0.000 A 
ATOM      3  C   UNL     1      -2.718   7.617  55.141  0.00  0.00    +0.000 A 
ATOM      4  C   UNL     1      -2.395   8.923  54.787  0.00  0.00    +0.000 A 
ATOM      5  C   UNL     1      -1.207   9.244  54.141  0.00  0.00    +0.000 A 
ATOM      6  C   UNL     1      -0.310   8.239  53.807  0.00  0.00    +0.000 A 
ATOM      7  O   UNL     1       0.416   8.637  52.680  0.00  0.00    +0.000 OA
ATOM      8  C   UNL     1      -0.076   9.900  52.236  0.00  0.00    +0.000 C 
ATOM      9  O   UNL     1      -0.769  10.345  53.397  0.00  0.00    +0.000 OA
ENDROOT
BRANCH   1  11
ATOM     10  C   UNL     1       0.076   5.015  53.268  0.00  0.00    +0.000 C 
ATOM     11  O   UNL     1       0.428   6.024  54.205  0.00  0.00    +0.000 OA
ENDBRANCH   1  11
BRANCH   3  12
ATOM     12  C   UNL     1      -4.141   7.274  55.020  0.00  0.00    +0.000 C 
ATOM     13  C   UNL     1      -4.657   6.586  56.013  0.00  0.00    +0.000 C 
BRANCH  13  14
ATOM     14  C   UNL     1      -4.461   7.157  57.353  0.00  0.00    +0.000 A 
ATOM     15  C   UNL     1      -4.031   6.335  58.389  0.00  0.00    +0.000 A 
ATOM     16  C   UNL     1      -4.515   6.420  59.667  0.00  0.00    +0.000 A 
ATOM     17  C   UNL     1      -5.617   7.222  59.932  0.00  0.00    +0.000 A 
ATOM     18  C   UNL     1      -5.810   8.270  59.041  0.00  0.00    +0.000 A 
ATOM     19  N   UNL     1      -6.824   9.212  59.409  0.00  0.00    +0.000 NA
ATOM     20  C   UNL     1      -5.409   8.107  57.720  0.00  0.00    +0.000 A 
BRANCH  17  21
ATOM     21  O   UNL     1      -6.590   6.852  60.865  0.00  0.00    +0.000 OA
ATOM     22  C   UNL     1      -7.476   5.784  60.643  0.00  0.00    +0.000 C 
ENDBRANCH  17  21
ENDBRANCH  13  14
ENDBRANCH   3  12
TORSDOF 4
ENDMDL
MODEL 4
REMARK VINA RESULT:      -0.0     31.135     33.880
REMARK  Name = 
REMARK  4 active torsions:
REMARK  status: ('A' for Active; 'I' for Inactive)
REMARK    1  A    between atoms: O_2  and  C_3
REMARK    2  A    between atoms: C_5  and  C_6
REMARK    3  A    between atoms: C_7  and  C_8
REMARK    4  A    between atoms: C_11  and  O_12
REMARK                            x       y       z     vdW  Elec       q    Type
REMARK                         _______ _______ _______ _____ _____    ______ ____
ROOT
ATOM      1  C   UNL     1      23.213  14.229  79.813  0.00  0.00    +0.000 A 
ATOM      2  C   UNL     1      22.071  14.138  79.027  0.00  0.00    +0.000 A 
ATOM      3  C   UNL     1      21.240  15.230  78.809  0.00  0.00    +0.000 A 
ATOM      4  C   UNL     1      21.751  16.447  79.246  0.00  0.00    +0.000 A 
ATOM      5  C   UNL     1      23.033  16.568  79.767  0.00  0.00    +0.000 A 
ATOM      6  C   UNL     1      23.857  15.454  79.841  0.00  0.00    +0.000 A 
ATOM      7  O   UNL     1      25.189  15.871  79.761  0.00  0.00    +0.000 OA
ATOM      8  C   UNL     1      25.220  17.283  79.561  0.00  0.00    +0.000 C 
ATOM      9  O   UNL     1      23.905  17.644  79.968  0.00  0.00    +0.000 OA
ENDROOT
BRANCH   1  11
ATOM     10  C   UNL     1      24.430  12.424  78.681  0.00  0.00    +0.000 C 
ATOM     11  O   UNL     1      24.001  13.090  79.861  0.00  0.00    +0.000 OA
ENDBRANCH   1  11
BRANCH   3  12
ATOM     12  C   UNL     1      20.369  15.309  77.628  0.00  0.00    +0.000 C 
ATOM     13  C   UNL     1      19.271  14.590  77.670  0.00  0.00    +0.000 C 
BRANCH  13  14
ATOM     14  C   UNL     1      18.419  14.795  78.851  0.00  0.00    +0.000 A 
ATOM     15  C   UNL     1      17.915  13.690  79.527  0.00  0.00    +0.000 A 
ATOM     16  C   UNL     1      16.644  13.633  80.032  0.00  0.00    +0.000 A 
ATOM     17  C   UNL     1      15.732  14.628  79.708  0.00  0.00    +0.000 A 
ATOM     18  C   UNL     1      16.292  15.851  79.364  0.00  0.00    +0.000 A 
ATOM     19  N   UNL     1      15.366  16.934  79.215  0.00  0.00    +0.000 NA
ATOM     20  C   UNL     1      17.538  15.866  78.748  0.00  0.00    +0.000 A 
BRANCH  17  21
ATOM     21  O   UNL     1      14.377  14.348  79.500  0.00  0.00    +0.000 OA
ATOM     22  C   UNL     1      13.923  13.637  78.377  0.00  0.00    +0.000 C 
ENDBRANCH  17  21
ENDBRANCH  13  14
ENDBRANCH   3  12
TORSDOF 4
ENDMDL
MODEL 5
REMARK VINA RESULT:      -0.0     40.728     42.397
REMARK  Name = 
REMARK  4 active torsions:
REMARK  status: ('A' for Active; 'I' for Inactive)
REMARK    1  A    between atoms: O_2  and  C_3
REMARK    2  A    between atoms: C_5  and  C_6
REMARK    3  A    between atoms: C_7  and  C_8
REMARK    4  A    between atoms: C_11  and  O_12
REMARK                            x       y       z     vdW  Elec       q    Type
REMARK                         _______ _______ _______ _____ _____    ______ ____
ROOT
ATOM      1  C   UNL     1      -0.435  34.766  78.709  0.00  0.00    +0.000 A 
ATOM      2  C   UNL     1      -0.973  35.907  79.290  0.00  0.00    +0.000 A 
ATOM      3  C   UNL     1      -0.432  37.168  79.072  0.00  0.00    +0.000 A 
ATOM      4  C   UNL     1       0.531  37.223  78.071  0.00  0.00    +0.000 A 
ATOM      5  C   UNL     1       0.849  36.121  77.287  0.00  0.00    +0.000 A 
ATOM      6  C   UNL     1       0.178  34.921  77.477  0.00  0.00    +0.000 A 
ATOM      7  O   UNL     1       0.160  34.217  76.269  0.00  0.00    +0.000 OA
ATOM      8  C   UNL     1       0.775  35.015  75.260  0.00  0.00    +0.000 C 
ATOM      9  O   UNL     1       1.490  35.954  76.054  0.00  0.00    +0.000 OA
ENDROOT
BRANCH   1  11
ATOM     10  C   UNL     1      -2.533  33.494  78.691  0.00  0.00    +0.000 C 
ATOM     11  O   UNL     1      -1.136  33.591  78.931  0.00  0.00    +0.000 OA
ENDBRANCH   1  11
BRANCH   3  12
ATOM     12  C   UNL     1      -1.238  38.387  79.229  0.00  0.00    +0.000 C 
ATOM     13  C   UNL     1      -1.450  38.786  80.462  0.00  0.00    +0.000 C 
BRANCH  13  14
ATOM     14  C   UNL     1      -0.250  38.949  81.295  0.00  0.00    +0.000 A 
ATOM     15  C   UNL     1      -0.239  38.428  82.584  0.00  0.00    +0.000 A 
ATOM     16  C   UNL     1       0.320  39.077  83.653  0.00  0.00    +0.000 A 
ATOM     17  C   UNL     1       0.734  40.394  83.515  0.00  0.00    +0.000 A 
ATOM     18  C   UNL     1       1.054  40.780  82.220  0.00  0.00    +0.000 A 
ATOM     19  N   UNL     1       1.661  42.071  82.093  0.00  0.00    +0.000 NA
ATOM     20  C   UNL     1       0.384  40.180  81.160  0.00  0.00    +0.000 A 
BRANCH  17  21
ATOM     21  O   UNL     1       0.596  41.322  84.553  0.00  0.00    +0.000 OA
ATOM     22  C   UNL     1      -0.658  41.810  84.961  0.00  0.00    +0.000 C 
ENDBRANCH  17  21
ENDBRANCH  13  14
ENDBRANCH   3  12
TORSDOF 4
ENDMDL
MODEL 6
REMARK VINA RESULT:      -0.0     31.031     33.677
REMARK  Name = 
REMARK  4 active torsions:
REMARK  status: ('A' for Active; 'I' for Inactive)
REMARK    1  A    between atoms: O_2  and  C_3
REMARK    2  A    between atoms: C_5  and  C_6
REMARK    3  A    between atoms: C_7  and  C_8
REMARK    4  A    between atoms: C_11  and  O_12
REMARK                            x       y       z     vdW  Elec       q    Type
REMARK                         _______ _______ _______ _____ _____    ______ ____
ROOT
ATOM      1  C   UNL     1      11.008  39.054  62.164  0.00  0.00    +0.000 A 
ATOM      2  C   UNL     1      10.235  37.929  61.900  0.00  0.00    +0.000 A 
ATOM      3  C   UNL     1       9.266  37.478  62.788  0.00  0.00    +0.000 A 
ATOM      4  C   UNL     1       8.983  38.351  63.833  0.00  0.00    +0.000 A 
ATOM      5  C   UNL     1       9.555  39.614  63.920  0.00  0.00    +0.000 A 
ATOM      6  C   UNL     1      10.422  40.049  62.927  0.00  0.00    +0.000 A 
ATOM      7  O   UNL     1      10.356  41.444  62.849  0.00  0.00    +0.000 OA
ATOM      8  C   UNL     1       9.370  41.912  63.767  0.00  0.00    +0.000 C 
ATOM      9  O   UNL     1       9.235  40.782  64.622  0.00  0.00    +0.000 OA
ENDROOT
BRANCH   1  11
ATOM     10  C   UNL     1      11.407  39.638  59.815  0.00  0.00    +0.000 C 
ATOM     11  O   UNL     1      11.863  39.447  61.147  0.00  0.00    +0.000 OA
ENDBRANCH   1  11
BRANCH   3  12
ATOM     12  C   UNL     1       8.133  36.659  62.337  0.00  0.00    +0.000 C 
ATOM     13  C   UNL     1       8.390  35.391  62.111  0.00  0.00    +0.000 C 
BRANCH  13  14
ATOM     14  C   UNL     1       9.037  34.665  63.214  0.00  0.00    +0.000 A 
ATOM     15  C   UNL     1      10.136  33.858  62.946  0.00  0.00    +0.000 A 
ATOM     16  C   UNL     1      10.337  32.640  63.539  0.00  0.00    +0.000 A 
ATOM     17  C   UNL     1       9.326  32.074  64.303  0.00  0.00    +0.000 A 
ATOM     18  C   UNL     1       8.426  32.977  64.852  0.00  0.00    +0.000 A 
ATOM     19  N   UNL     1       7.496  32.428  65.793  0.00  0.00    +0.000 NA
ATOM     20  C   UNL     1       8.159  34.156  64.165  0.00  0.00    +0.000 A 
BRANCH  17  21
ATOM     21  O   UNL     1       9.089  30.695  64.307  0.00  0.00    +0.000 OA
ATOM     22  C   UNL     1       8.542  30.025  63.199  0.00  0.00    +0.000 C 
ENDBRANCH  17  21
ENDBRANCH  13  14
ENDBRANCH   3  12
TORSDOF 4
ENDMDL
MODEL 7
REMARK VINA RESULT:      -0.0     23.140     26.521
REMARK  Name = 
REMARK  4 active torsions:
REMARK  status: ('A' for Active; 'I' for Inactive)
REMARK    1  A    between atoms: O_2  and  C_3
REMARK    2  A    between atoms: C_5  and  C_6
REMARK    3  A    between atoms: C_7  and  C_8
REMARK    4  A    between atoms: C_11  and  O_12
REMARK                            x       y       z     vdW  Elec       q    Type
REMARK                         _______ _______ _______ _____ _____    ______ ____
ROOT
ATOM      1  C   UNL     1       6.513  27.462  57.483  0.00  0.00    +0.000 A 
ATOM      2  C   UNL     1       7.064  28.015  58.632  0.00  0.00    +0.000 A 
ATOM      3  C   UNL     1       7.517  29.328  58.672  0.00  0.00    +0.000 A 
ATOM      4  C   UNL     1       7.179  30.095  57.562  0.00  0.00    +0.000 A 
ATOM      5  C   UNL     1       6.366  29.608  56.545  0.00  0.00    +0.000 A 
ATOM      6  C   UNL     1       5.844  28.325  56.632  0.00  0.00    +0.000 A 
ATOM      7  O   UNL     1       4.635  28.281  55.931  0.00  0.00    +0.000 OA
ATOM      8  C   UNL     1       4.338  29.586  55.439  0.00  0.00    +0.000 C 
ATOM      9  O   UNL     1       5.615  30.207  55.528  0.00  0.00    +0.000 OA
ENDROOT
BRANCH   1  11
ATOM     10  C   UNL     1       5.108  25.829  58.656  0.00  0.00    +0.000 C 
ATOM     11  O   UNL     1       6.011  26.177  57.616  0.00  0.00    +0.000 OA
ENDBRANCH   1  11
BRANCH   3  12
ATOM     12  C   UNL     1       7.611  30.071  59.937  0.00  0.00    +0.000 C 
ATOM     13  C   UNL     1       8.642  29.788  60.699  0.00  0.00    +0.000 C 
BRANCH  13  14
ATOM     14  C   UNL     1       9.958  29.872  60.049  0.00  0.00    +0.000 A 
ATOM     15  C   UNL     1      10.875  28.843  60.231  0.00  0.00    +0.000 A 
ATOM     16  C   UNL     1      12.216  29.054  60.409  0.00  0.00    +0.000 A 
ATOM     17  C   UNL     1      12.687  30.345  60.608  0.00  0.00    +0.000 A 
ATOM     18  C   UNL     1      11.885  31.352  60.088  0.00  0.00    +0.000 A 
ATOM     19  N   UNL     1      12.450  32.668  60.119  0.00  0.00    +0.000 NA
ATOM     20  C   UNL     1      10.511  31.148  60.028  0.00  0.00    +0.000 A 
BRANCH  17  21
ATOM     21  O   UNL     1      13.747  30.616  61.480  0.00  0.00    +0.000 OA
ATOM     22  C   UNL     1      13.621  30.492  62.874  0.00  0.00    +0.000 C 
ENDBRANCH  17  21
ENDBRANCH  13  14
ENDBRANCH   3  12
TORSDOF 4
ENDMDL
MODEL 8
REMARK VINA RESULT:      -0.0     26.236     28.012
REMARK  Name = 
REMARK  4 active torsions:
REMARK  status: ('A' for Active; 'I' for Inactive)
REMARK    1  A    between atoms: O_2  and  C_3
REMARK    2  A    between atoms: C_5  and  C_6
REMARK    3  A    between atoms: C_7  and  C_8
REMARK    4  A    between atoms: C_11  and  O_12
REMARK                            x       y       z     vdW  Elec       q    Type
REMARK                         _______ _______ _______ _____ _____    ______ ____
ROOT
ATOM      1  C   UNL     1      -9.396  31.706  64.130  0.00  0.00    +0.000 A 
ATOM      2  C   UNL     1      -8.684  31.434  62.969  0.00  0.00    +0.000 A 
ATOM      3  C   UNL     1      -8.713  30.183  62.364  0.00  0.00    +0.000 A 
ATOM      4  C   UNL     1      -9.667  29.310  62.877  0.00  0.00    +0.000 A 
ATOM      5  C   UNL     1     -10.581  29.700  63.849  0.00  0.00    +0.000 A 
ATOM      6  C   UNL     1     -10.575  31.006  64.319  0.00  0.00    +0.000 A 
ATOM      7  O   UNL     1     -11.867  31.341  64.737  0.00  0.00    +0.000 OA
ATOM      8  C   UNL     1     -12.739  30.246  64.464  0.00  0.00    +0.000 C 
ATOM      9  O   UNL     1     -11.804  29.188  64.296  0.00  0.00    +0.000 OA
ENDROOT
BRANCH   1  11
ATOM     10  C   UNL     1      -9.629  34.108  63.692  0.00  0.00    +0.000 C 
ATOM     11  O   UNL     1      -9.356  33.021  64.565  0.00  0.00    +0.000 OA
ENDBRANCH   1  11
BRANCH   3  12
ATOM     12  C   UNL     1      -8.420  30.014  60.934  0.00  0.00    +0.000 C 
ATOM     13  C   UNL     1      -7.151  30.040  60.597  0.00  0.00    +0.000 C 
BRANCH  13  14
ATOM     14  C   UNL     1      -6.276  29.115  61.331  0.00  0.00    +0.000 A 
ATOM     15  C   UNL     1      -5.066  29.576  61.835  0.00  0.00    +0.000 A 
ATOM     16  C   UNL     1      -3.910  28.843  61.804  0.00  0.00    +0.000 A 
ATOM     17  C   UNL     1      -3.866  27.661  61.077  0.00  0.00    +0.000 A 
ATOM     18  C   UNL     1      -5.093  27.038  60.891  0.00  0.00    +0.000 A 
ATOM     19  N   UNL     1      -5.038  25.729  60.311  0.00  0.00    +0.000 NA
ATOM     20  C   UNL     1      -6.237  27.824  60.813  0.00  0.00    +0.000 A 
BRANCH  17  21
ATOM     21  O   UNL     1      -2.721  27.269  60.376  0.00  0.00    +0.000 OA
ATOM     22  C   UNL     1      -2.282  27.939  59.221  0.00  0.00    +0.000 C 
ENDBRANCH  17  21
ENDBRANCH  13  14
ENDBRANCH   3  12
TORSDOF 4
ENDMDL
MODEL 9
REMARK VINA RESULT:      -0.0     13.254     14.210
REMARK  Name = 
REMARK  4 active torsions:
REMARK  status: ('A' for Active; 'I' for Inactive)
REMARK    1  A    between atoms: O_2  and  C_3
REMARK    2  A    between atoms: C_5  and  C_6
REMARK    3  A    between atoms: C_7  and  C_8
REMARK    4  A    between atoms: C_11  and  O_12
REMARK                            x       y       z     vdW  Elec       q    Type
REMARK                         _______ _______ _______ _____ _____    ______ ____
ROOT
ATOM      1  C   UNL     1      -7.395  13.229  57.934  0.00  0.00    +0.000 A 
ATOM      2  C   UNL     1      -8.351  12.423  57.328  0.00  0.00    +0.000 A 
ATOM      3  C   UNL     1      -8.887  12.726  56.083  0.00  0.00    +0.000 A 
ATOM      4  C   UNL     1      -8.243  13.757  55.407  0.00  0.00    +0.000 A 
ATOM      5  C   UNL     1      -7.093  14.361  55.900  0.00  0.00    +0.000 A 
ATOM      6  C   UNL     1      -6.539  13.920  57.094  0.00  0.00    +0.000 A 
ATOM      7  O   UNL     1      -5.162  14.162  57.070  0.00  0.00    +0.000 OA
ATOM      8  C   UNL     1      -4.811  14.708  55.800  0.00  0.00    +0.000 C 
ATOM      9  O   UNL     1      -6.082  15.143  55.330  0.00  0.00    +0.000 OA
ENDROOT
BRANCH   1  11
ATOM     10  C   UNL     1      -6.391  11.422  59.255  0.00  0.00    +0.000 C 
ATOM     11  O   UNL     1      -6.875  12.751  59.126  0.00  0.00    +0.000 OA
ENDBRANCH   1  11
BRANCH   3  12
ATOM     12  C   UNL     1      -9.471  11.687  55.223  0.00  0.00    +0.000 C 
ATOM     13  C   UNL     1     -10.681  11.286  55.540  0.00  0.00    +0.000 C 
BRANCH  13  14
ATOM     14  C   UNL     1     -11.688  12.348  55.680  0.00  0.00    +0.000 A 
ATOM     15  C   UNL     1     -12.541  12.337  56.778  0.00  0.00    +0.000 A 
ATOM     16  C   UNL     1     -13.870  12.656  56.700  0.00  0.00    +0.000 A 
ATOM     17  C   UNL     1     -14.465  12.821  55.457  0.00  0.00    +0.000 A 
ATOM     18  C   UNL     1     -13.600  13.181  54.432  0.00  0.00    +0.000 A 
ATOM     19  N   UNL     1     -14.224  13.538  53.194  0.00  0.00    +0.000 NA
ATOM     20  C   UNL     1     -12.282  12.743  54.486  0.00  0.00    +0.000 A 
BRANCH  17  21
ATOM     21  O   UNL     1     -15.778  12.408  55.208  0.00  0.00    +0.000 OA
ATOM     22  C   UNL     1     -16.143  11.052  55.162  0.00  0.00    +0.000 C 
ENDBRANCH  17  21
ENDBRANCH  13  14
ENDBRANCH   3  12
TORSDOF 4
ENDMDL
MODEL 10
REMARK VINA RESULT:       0.0     24.202     28.179
REMARK  Name = 
REMARK  4 active torsions:
REMARK  status: ('A' for Active; 'I' for Inactive)
REMARK    1  A    between atoms: O_2  and  C_3
REMARK    2  A    between atoms: C_5  and  C_6
REMARK    3  A    between atoms: C_7  and  C_8
REMARK    4  A    between atoms: C_11  and  O_12
REMARK                            x       y       z     vdW  Elec       q    Type
REMARK                         _______ _______ _______ _____ _____    ______ ____
ROOT
ATOM      1  C   UNL     1      21.190  20.961  56.629  0.00  0.00    +0.000 A 
ATOM      2  C   UNL     1      21.429  21.058  55.264  0.00  0.00    +0.000 A 
ATOM      3  C   UNL     1      22.574  21.662  54.759  0.00  0.00    +0.000 A 
ATOM      4  C   UNL     1      23.546  21.955  55.710  0.00  0.00    +0.000 A 
ATOM      5  C   UNL     1      23.417  21.579  57.041  0.00  0.00    +0.000 A 
ATOM      6  C   UNL     1      22.299  20.865  57.452  0.00  0.00    +0.000 A 
ATOM      7  O   UNL     1      22.647  20.076  58.553  0.00  0.00    +0.000 OA
ATOM      8  C   UNL     1      24.041  20.233  58.812  0.00  0.00    +0.000 C 
ATOM      9  O   UNL     1      24.315  21.437  58.105  0.00  0.00    +0.000 OA
ENDROOT
BRANCH   1  11
ATOM     10  C   UNL     1      19.802  18.943  56.483  0.00  0.00    +0.000 C 
ATOM     11  O   UNL     1      20.061  20.244  56.992  0.00  0.00    +0.000 OA
ENDBRANCH   1  11
BRANCH   3  12
ATOM     12  C   UNL     1      23.090  21.335  53.422  0.00  0.00    +0.000 C 
ATOM     13  C   UNL     1      22.459  21.882  52.409  0.00  0.00    +0.000 C 
BRANCH  13  14
ATOM     14  C   UNL     1      22.305  23.343  52.468  0.00  0.00    +0.000 A 
ATOM     15  C   UNL     1      21.069  23.910  52.178  0.00  0.00    +0.000 A 
ATOM     16  C   UNL     1      20.922  25.065  51.457  0.00  0.00    +0.000 A 
ATOM     17  C   UNL     1      22.022  25.617  50.813  0.00  0.00    +0.000 A 
ATOM     18  C   UNL     1      23.253  25.291  51.366  0.00  0.00    +0.000 A 
ATOM     19  N   UNL     1      24.376  26.002  50.833  0.00  0.00    +0.000 NA
ATOM     20  C   UNL     1      23.399  24.059  51.993  0.00  0.00    +0.000 A 
BRANCH  17  21
ATOM     21  O   UNL     1      21.910  26.237  49.565  0.00  0.00    +0.000 OA
ATOM     22  C   UNL     1      21.646  25.515  48.389  0.00  0.00    +0.000 C 
ENDBRANCH  17  21
ENDBRANCH  13  14
ENDBRANCH   3  12
TORSDOF 4
ENDMDL
