REMARK  Name = 
REMARK  3 active torsions:
REMARK  status: ('A' for Active; 'I' for Inactive)
REMARK    1  A    between atoms: O_2  and  C_3
REMARK    2  A    between atoms: C_5  and  C_6
REMARK    3  A    between atoms: C_7  and  C_8
REMARK                            x       y       z     vdW  Elec       q    Type
REMARK                         _______ _______ _______ _____ _____    ______ ____
ROOT
ATOM      1  C   UNL     1      -0.060  -0.856  -0.482  0.00  0.00    +0.000 C 
ATOM      2  C   UNL     1      -0.918  -1.601   0.176  0.00  0.00    +0.000 C 
ENDROOT
BRANCH   2   3
ATOM      3  C   UNL     1      -2.319  -1.158   0.239  0.00  0.00    +0.000 A 
ATOM      4  C   UNL     1      -2.741  -0.228   1.180  0.00  0.00    +0.000 A 
ATOM      5  C   UNL     1      -3.595   0.798   0.880  0.00  0.00    +0.000 A 
ATOM      6  O   UNL     1      -3.654   1.997   1.592  0.00  0.00    +0.000 OA
ATOM      7  C   UNL     1      -4.238   0.784  -0.351  0.00  0.00    +0.000 A 
ATOM      8  C   UNL     1      -4.158  -0.367  -1.125  0.00  0.00    +0.000 A 
ATOM      9  O   UNL     1      -4.710  -0.291  -2.406  0.00  0.00    +0.000 OA
ATOM     10  C   UNL     1      -3.172  -1.306  -0.848  0.00  0.00    +0.000 A 
ENDBRANCH   2   3
BRANCH   1  13
ATOM     11  C   UNL     1       3.211   0.801  -0.469  0.00  0.00    +0.000 A 
ATOM     12  C   UNL     1       1.841   0.664  -0.478  0.00  0.00    +0.000 A 
ATOM     13  C   UNL     1       1.280  -0.532  -0.051  0.00  0.00    +0.000 A 
ATOM     14  C   UNL     1       2.093  -1.408   0.657  0.00  0.00    +0.000 A 
ATOM     15  C   UNL     1       3.464  -1.388   0.442  0.00  0.00    +0.000 A 
ATOM     16  C   UNL     1       4.035  -0.265  -0.136  0.00  0.00    +0.000 A 
ATOM     17  O   UNL     1       5.348  -0.350  -0.563  0.00  0.00    +0.000 OA
BRANCH  11  19
ATOM     18  C   UNL     1       4.446   2.663   0.559  0.00  0.00    +0.000 C 
ATOM     19  O   UNL     1       3.848   2.042  -0.560  0.00  0.00    +0.000 OA
ENDBRANCH  11  19
ENDBRANCH   1  13
TORSDOF 3
