MODEL 1
REMARK VINA RESULT:       0.0      0.000      0.000
REMARK  Name = 
REMARK  3 active torsions:
REMARK  status: ('A' for Active; 'I' for Inactive)
REMARK    1  A    between atoms: O_2  and  C_3
REMARK    2  A    between atoms: C_5  and  C_6
REMARK    3  A    between atoms: C_7  and  C_8
REMARK                            x       y       z     vdW  Elec       q    Type
REMARK                         _______ _______ _______ _____ _____    ______ ____
ROOT
ATOM      1  C   UNL     1     -11.873  16.109  57.989  0.00  0.00    +0.000 C 
ATOM      2  C   UNL     1     -12.925  15.491  58.475  0.00  0.00    +0.000 C 
ENDROOT
BRANCH   2   3
ATOM      3  C   UNL     1     -14.093  16.300  58.856  0.00  0.00    +0.000 A 
ATOM      4  C   UNL     1     -14.188  16.887  60.111  0.00  0.00    +0.000 A 
ATOM      5  C   UNL     1     -14.638  18.164  60.302  0.00  0.00    +0.000 A 
ATOM      6  O   UNL     1     -14.296  18.955  61.400  0.00  0.00    +0.000 OA
ATOM      7  C   UNL     1     -15.229  18.824  59.232  0.00  0.00    +0.000 A 
ATOM      8  C   UNL     1     -15.534  18.091  58.092  0.00  0.00    +0.000 A 
ATOM      9  O   UNL     1     -16.008  18.818  56.997  0.00  0.00    +0.000 OA
ATOM     10  C   UNL     1     -14.929  16.855  57.895  0.00  0.00    +0.000 A 
ENDBRANCH   2   3
BRANCH   1  13
ATOM     11  C   UNL     1      -8.884  15.728  60.079  0.00  0.00    +0.000 A 
ATOM     12  C   UNL     1     -10.183  15.563  59.654  0.00  0.00    +0.000 A 
ATOM     13  C   UNL     1     -10.498  15.827  58.327  0.00  0.00    +0.000 A 
ATOM     14  C   UNL     1      -9.446  15.934  57.425  0.00  0.00    +0.000 A 
ATOM     15  C   UNL     1      -8.201  16.344  57.879  0.00  0.00    +0.000 A 
ATOM     16  C   UNL     1      -7.914  16.245  59.231  0.00  0.00    +0.000 A 
ATOM     17  O   UNL     1      -6.775  16.873  59.703  0.00  0.00    +0.000 OA
BRANCH  11  19
ATOM     18  C   UNL     1      -7.994  13.840  61.379  0.00  0.00    +0.000 C 
ATOM     19  O   UNL     1      -8.405  15.188  61.275  0.00  0.00    +0.000 OA
ENDBRANCH  11  19
ENDBRANCH   1  13
TORSDOF 3
ENDMDL
MODEL 2
REMARK VINA RESULT:       0.0      9.943     14.448
REMARK  Name = 
REMARK  3 active torsions:
REMARK  status: ('A' for Active; 'I' for Inactive)
REMARK    1  A    between atoms: O_2  and  C_3
REMARK    2  A    between atoms: C_5  and  C_6
REMARK    3  A    between atoms: C_7  and  C_8
REMARK                            x       y       z     vdW  Elec       q    Type
REMARK                         _______ _______ _______ _____ _____    ______ ____
ROOT
ATOM      1  C   UNL     1       0.492  16.186  63.053  0.00  0.00    +0.000 C 
ATOM      2  C   UNL     1       1.572  16.182  63.801  0.00  0.00    +0.000 C 
ENDROOT
BRANCH   2   3
ATOM      3  C   UNL     1       2.793  15.570  63.256  0.00  0.00    +0.000 A 
ATOM      4  C   UNL     1       3.023  14.204  63.356  0.00  0.00    +0.000 A 
ATOM      5  C   UNL     1       3.525  13.457  62.325  0.00  0.00    +0.000 A 
ATOM      6  O   UNL     1       3.311  12.086  62.179  0.00  0.00    +0.000 OA
ATOM      7  C   UNL     1       4.031  14.120  61.214  0.00  0.00    +0.000 A 
ATOM      8  C   UNL     1       4.205  15.496  61.289  0.00  0.00    +0.000 A 
ATOM      9  O   UNL     1       4.594  16.136  60.110  0.00  0.00    +0.000 OA
ATOM     10  C   UNL     1       3.550  16.212  62.284  0.00  0.00    +0.000 A 
ENDBRANCH   2   3
BRANCH   1  13
ATOM     11  C   UNL     1      -2.281  14.268  64.494  0.00  0.00    +0.000 A 
ATOM     12  C   UNL     1      -1.034  14.844  64.392  0.00  0.00    +0.000 A 
ATOM     13  C   UNL     1      -0.848  15.897  63.506  0.00  0.00    +0.000 A 
ATOM     14  C   UNL     1      -1.982  16.524  63.005  0.00  0.00    +0.000 A 
ATOM     15  C   UNL     1      -3.167  15.809  62.905  0.00  0.00    +0.000 A 
ATOM     16  C   UNL     1      -3.319  14.657  63.660  0.00  0.00    +0.000 A 
ATOM     17  O   UNL     1      -4.392  13.830  63.375  0.00  0.00    +0.000 OA
BRANCH  11  19
ATOM     18  C   UNL     1      -3.076  13.974  66.803  0.00  0.00    +0.000 C 
ATOM     19  O   UNL     1      -2.649  13.447  65.564  0.00  0.00    +0.000 OA
ENDBRANCH  11  19
ENDBRANCH   1  13
TORSDOF 3
ENDMDL
MODEL 3
REMARK VINA RESULT:       0.0     23.504     26.740
REMARK  Name = 
REMARK  3 active torsions:
REMARK  status: ('A' for Active; 'I' for Inactive)
REMARK    1  A    between atoms: O_2  and  C_3
REMARK    2  A    between atoms: C_5  and  C_6
REMARK    3  A    between atoms: C_7  and  C_8
REMARK                            x       y       z     vdW  Elec       q    Type
REMARK                         _______ _______ _______ _____ _____    ______ ____
ROOT
ATOM      1  C   UNL     1      11.452  12.590  68.398  0.00  0.00    +0.000 C 
ATOM      2  C   UNL     1      12.018  13.290  67.442  0.00  0.00    +0.000 C 
ENDROOT
BRANCH   2   3
ATOM      3  C   UNL     1      13.484  13.256  67.329  0.00  0.00    +0.000 A 
ATOM      4  C   UNL     1      14.286  14.114  68.069  0.00  0.00    +0.000 A 
ATOM      5  C   UNL     1      15.438  13.708  68.686  0.00  0.00    +0.000 A 
ATOM      6  O   UNL     1      15.989  14.339  69.802  0.00  0.00    +0.000 OA
ATOM      7  C   UNL     1      15.942  12.450  68.382  0.00  0.00    +0.000 A 
ATOM      8  C   UNL     1      15.386  11.755  67.316  0.00  0.00    +0.000 A 
ATOM      9  O   UNL     1      15.836  10.446  67.127  0.00  0.00    +0.000 OA
ATOM     10  C   UNL     1      14.143  12.140  66.828  0.00  0.00    +0.000 A 
ENDBRANCH   2   3
BRANCH   1  13
ATOM     11  C   UNL     1       9.638  14.661  70.819  0.00  0.00    +0.000 A 
ATOM     12  C   UNL     1      10.377  14.341  69.702  0.00  0.00    +0.000 A 
ATOM     13  C   UNL     1      10.364  13.033  69.237  0.00  0.00    +0.000 A 
ATOM     14  C   UNL     1       9.371  12.188  69.718  0.00  0.00    +0.000 A 
ATOM     15  C   UNL     1       8.826  12.425  70.973  0.00  0.00    +0.000 A 
ATOM     16  C   UNL     1       8.965  13.683  71.537  0.00  0.00    +0.000 A 
ATOM     17  O   UNL     1       8.635  13.836  72.872  0.00  0.00    +0.000 OA
BRANCH  11  19
ATOM     18  C   UNL     1       8.252  16.678  70.569  0.00  0.00    +0.000 C 
ATOM     19  O   UNL     1       9.325  15.978  71.167  0.00  0.00    +0.000 OA
ENDBRANCH  11  19
ENDBRANCH   1  13
TORSDOF 3
ENDMDL
MODEL 4
REMARK VINA RESULT:       0.0     36.253     38.647
REMARK  Name = 
REMARK  3 active torsions:
REMARK  status: ('A' for Active; 'I' for Inactive)
REMARK    1  A    between atoms: O_2  and  C_3
REMARK    2  A    between atoms: C_5  and  C_6
REMARK    3  A    between atoms: C_7  and  C_8
REMARK                            x       y       z     vdW  Elec       q    Type
REMARK                         _______ _______ _______ _____ _____    ______ ____
ROOT
ATOM      1  C   UNL     1      24.287  26.079  71.821  0.00  0.00    +0.000 C 
ATOM      2  C   UNL     1      24.208  26.024  73.130  0.00  0.00    +0.000 C 
ENDROOT
BRANCH   2   3
ATOM      3  C   UNL     1      23.162  25.181  73.729  0.00  0.00    +0.000 A 
ATOM      4  C   UNL     1      22.018  25.737  74.287  0.00  0.00    +0.000 A 
ATOM      5  C   UNL     1      20.769  25.214  74.095  0.00  0.00    +0.000 A 
ATOM      6  O   UNL     1      19.591  25.958  74.184  0.00  0.00    +0.000 OA
ATOM      7  C   UNL     1      20.660  23.961  73.505  0.00  0.00    +0.000 A 
ATOM      8  C   UNL     1      21.814  23.207  73.340  0.00  0.00    +0.000 A 
ATOM      9  O   UNL     1      21.676  22.012  72.629  0.00  0.00    +0.000 OA
ATOM     10  C   UNL     1      23.053  23.833  73.411  0.00  0.00    +0.000 A 
ENDBRANCH   2   3
BRANCH   1  13
ATOM     11  C   UNL     1      23.554  29.306  70.242  0.00  0.00    +0.000 A 
ATOM     12  C   UNL     1      23.664  28.358  71.233  0.00  0.00    +0.000 A 
ATOM     13  C   UNL     1      24.509  27.273  71.039  0.00  0.00    +0.000 A 
ATOM     14  C   UNL     1      25.435  27.355  70.006  0.00  0.00    +0.000 A 
ATOM     15  C   UNL     1      25.156  28.152  68.904  0.00  0.00    +0.000 A 
ATOM     16  C   UNL     1      24.194  29.144  69.021  0.00  0.00    +0.000 A 
ATOM     17  O   UNL     1      23.756  29.764  67.865  0.00  0.00    +0.000 OA
BRANCH  11  19
ATOM     18  C   UNL     1      23.784  31.662  70.912  0.00  0.00    +0.000 C 
ATOM     19  O   UNL     1      23.005  30.572  70.463  0.00  0.00    +0.000 OA
ENDBRANCH  11  19
ENDBRANCH   1  13
TORSDOF 3
ENDMDL
MODEL 5
REMARK VINA RESULT:       0.0     15.803     18.953
REMARK  Name = 
REMARK  3 active torsions:
REMARK  status: ('A' for Active; 'I' for Inactive)
REMARK    1  A    between atoms: O_2  and  C_3
REMARK    2  A    between atoms: C_5  and  C_6
REMARK    3  A    between atoms: C_7  and  C_8
REMARK                            x       y       z     vdW  Elec       q    Type
REMARK                         _______ _______ _______ _____ _____    ______ ____
ROOT
ATOM      1  C   UNL     1       7.690  15.898  58.384  0.00  0.00    +0.000 C 
ATOM      2  C   UNL     1       7.600  15.810  57.077  0.00  0.00    +0.000 C 
ENDROOT
BRANCH   2   3
ATOM      3  C   UNL     1       6.297  16.073  56.449  0.00  0.00    +0.000 A 
ATOM      4  C   UNL     1       5.507  15.040  55.963  0.00  0.00    +0.000 A 
ATOM      5  C   UNL     1       4.153  14.987  56.153  0.00  0.00    +0.000 A 
ATOM      6  O   UNL     1       3.410  13.805  56.149  0.00  0.00    +0.000 OA
ATOM      7  C   UNL     1       3.511  16.112  56.656  0.00  0.00    +0.000 A 
ATOM      8  C   UNL     1       4.227  17.300  56.736  0.00  0.00    +0.000 A 
ATOM      9  O   UNL     1       3.584  18.369  57.365  0.00  0.00    +0.000 OA
ATOM     10  C   UNL     1       5.615  17.263  56.674  0.00  0.00    +0.000 A 
ENDBRANCH   2   3
BRANCH   1  13
ATOM     11  C   UNL     1       8.416  12.798  60.201  0.00  0.00    +0.000 A 
ATOM     12  C   UNL     1       8.116  13.625  59.142  0.00  0.00    +0.000 A 
ATOM     13  C   UNL     1       8.399  14.981  59.245  0.00  0.00    +0.000 A 
ATOM     14  C   UNL     1       9.251  15.385  60.265  0.00  0.00    +0.000 A 
ATOM     15  C   UNL     1       9.331  14.628  61.425  0.00  0.00    +0.000 A 
ATOM     16  C   UNL     1       8.901  13.310  61.396  0.00  0.00    +0.000 A 
ATOM     17  O   UNL     1       8.761  12.646  62.601  0.00  0.00    +0.000 OA
BRANCH  11  19
ATOM     18  C   UNL     1       9.661  10.739  59.691  0.00  0.00    +0.000 C 
ATOM     19  O   UNL     1       8.478  11.406  60.079  0.00  0.00    +0.000 OA
ENDBRANCH  11  19
ENDBRANCH   1  13
TORSDOF 3
ENDMDL
MODEL 6
REMARK VINA RESULT:       0.0     17.167     18.918
REMARK  Name = 
REMARK  3 active torsions:
REMARK  status: ('A' for Active; 'I' for Inactive)
REMARK    1  A    between atoms: O_2  and  C_3
REMARK    2  A    between atoms: C_5  and  C_6
REMARK    3  A    between atoms: C_7  and  C_8
REMARK                            x       y       z     vdW  Elec       q    Type
REMARK                         _______ _______ _______ _____ _____    ______ ____
ROOT
ATOM      1  C   UNL     1      -3.302  29.543  47.889  0.00  0.00    +0.000 C 
ATOM      2  C   UNL     1      -3.065  28.545  48.709  0.00  0.00    +0.000 C 
ENDROOT
BRANCH   2   3
ATOM      3  C   UNL     1      -4.034  27.440  48.759  0.00  0.00    +0.000 A 
ATOM      4  C   UNL     1      -5.025  27.391  49.731  0.00  0.00    +0.000 A 
ATOM      5  C   UNL     1      -6.318  27.035  49.457  0.00  0.00    +0.000 A 
ATOM      6  O   UNL     1      -7.415  27.436  50.221  0.00  0.00    +0.000 OA
ATOM      7  C   UNL     1      -6.604  26.491  48.212  0.00  0.00    +0.000 A 
ATOM      8  C   UNL     1      -5.544  26.132  47.389  0.00  0.00    +0.000 A 
ATOM      9  O   UNL     1      -5.878  25.709  46.100  0.00  0.00    +0.000 OA
ATOM     10  C   UNL     1      -4.278  26.644  47.646  0.00  0.00    +0.000 A 
ENDBRANCH   2   3
BRANCH   1  13
ATOM     11  C   UNL     1      -3.582  32.694  49.744  0.00  0.00    +0.000 A 
ATOM     12  C   UNL     1      -3.308  31.366  49.501  0.00  0.00    +0.000 A 
ATOM     13  C   UNL     1      -3.123  30.944  48.192  0.00  0.00    +0.000 A 
ATOM     14  C   UNL     1      -2.908  31.918  47.225  0.00  0.00    +0.000 A 
ATOM     15  C   UNL     1      -3.423  33.192  47.417  0.00  0.00    +0.000 A 
ATOM     16  C   UNL     1      -3.772  33.588  48.699  0.00  0.00    +0.000 A 
ATOM     17  O   UNL     1      -4.500  34.754  48.844  0.00  0.00    +0.000 OA
BRANCH  11  19
ATOM     18  C   UNL     1      -4.418  33.065  52.027  0.00  0.00    +0.000 C 
ATOM     19  O   UNL     1      -3.459  33.273  51.010  0.00  0.00    +0.000 OA
ENDBRANCH  11  19
ENDBRANCH   1  13
TORSDOF 3
ENDMDL
MODEL 7
REMARK VINA RESULT:       0.0     19.435     20.763
REMARK  Name = 
REMARK  3 active torsions:
REMARK  status: ('A' for Active; 'I' for Inactive)
REMARK    1  A    between atoms: O_2  and  C_3
REMARK    2  A    between atoms: C_5  and  C_6
REMARK    3  A    between atoms: C_7  and  C_8
REMARK                            x       y       z     vdW  Elec       q    Type
REMARK                         _______ _______ _______ _____ _____    ______ ____
ROOT
ATOM      1  C   UNL     1      -4.164  31.998  69.756  0.00  0.00    +0.000 C 
ATOM      2  C   UNL     1      -3.344  31.193  69.122  0.00  0.00    +0.000 C 
ENDROOT
BRANCH   2   3
ATOM      3  C   UNL     1      -3.808  29.833  68.808  0.00  0.00    +0.000 A 
ATOM      4  C   UNL     1      -3.413  28.741  69.570  0.00  0.00    +0.000 A 
ATOM      5  C   UNL     1      -4.274  27.748  69.948  0.00  0.00    +0.000 A 
ATOM      6  O   UNL     1      -4.089  26.941  71.071  0.00  0.00    +0.000 OA
ATOM      7  C   UNL     1      -5.536  27.711  69.367  0.00  0.00    +0.000 A 
ATOM      8  C   UNL     1      -5.788  28.541  68.282  0.00  0.00    +0.000 A 
ATOM      9  O   UNL     1      -7.104  28.564  67.813  0.00  0.00    +0.000 OA
ATOM     10  C   UNL     1      -4.945  29.618  68.039  0.00  0.00    +0.000 A 
ENDBRANCH   2   3
BRANCH   1  13
ATOM     11  C   UNL     1      -3.092  33.015  73.112  0.00  0.00    +0.000 A 
ATOM     12  C   UNL     1      -3.069  32.365  71.899  0.00  0.00    +0.000 A 
ATOM     13  C   UNL     1      -3.808  32.881  70.843  0.00  0.00    +0.000 A 
ATOM     14  C   UNL     1      -4.275  34.184  70.960  0.00  0.00    +0.000 A 
ATOM     15  C   UNL     1      -4.513  34.711  72.221  0.00  0.00    +0.000 A 
ATOM     16  C   UNL     1      -3.915  34.114  73.320  0.00  0.00    +0.000 A 
ATOM     17  O   UNL     1      -4.345  34.491  74.579  0.00  0.00    +0.000 OA
BRANCH  11  19
ATOM     18  C   UNL     1      -0.919  33.467  74.172  0.00  0.00    +0.000 C 
ATOM     19  O   UNL     1      -2.150  32.776  74.117  0.00  0.00    +0.000 OA
ENDBRANCH  11  19
ENDBRANCH   1  13
TORSDOF 3
ENDMDL
MODEL 8
REMARK VINA RESULT:       0.0     27.509     30.242
REMARK  Name = 
REMARK  3 active torsions:
REMARK  status: ('A' for Active; 'I' for Inactive)
REMARK    1  A    between atoms: O_2  and  C_3
REMARK    2  A    between atoms: C_5  and  C_6
REMARK    3  A    between atoms: C_7  and  C_8
REMARK                            x       y       z     vdW  Elec       q    Type
REMARK                         _______ _______ _______ _____ _____    ______ ____
ROOT
ATOM      1  C   UNL     1      18.280  11.339  62.937  0.00  0.00    +0.000 C 
ATOM      2  C   UNL     1      18.651  10.843  61.779  0.00  0.00    +0.000 C 
ENDROOT
BRANCH   2   3
ATOM      3  C   UNL     1      17.711  10.934  60.650  0.00  0.00    +0.000 A 
ATOM      4  C   UNL     1      16.965   9.836  60.242  0.00  0.00    +0.000 A 
ATOM      5  C   UNL     1      15.642   9.921  59.903  0.00  0.00    +0.000 A 
ATOM      6  O   UNL     1      14.748   8.852  59.978  0.00  0.00    +0.000 OA
ATOM      7  C   UNL     1      15.079  11.181  59.749  0.00  0.00    +0.000 A 
ATOM      8  C   UNL     1      15.924  12.284  59.728  0.00  0.00    +0.000 A 
ATOM      9  O   UNL     1      15.306  13.536  59.699  0.00  0.00    +0.000 OA
ATOM     10  C   UNL     1      17.218  12.159  60.219  0.00  0.00    +0.000 A 
ENDBRANCH   2   3
BRANCH   1  13
ATOM     11  C   UNL     1      17.966   8.863  65.622  0.00  0.00    +0.000 A 
ATOM     12  C   UNL     1      18.204   9.370  64.365  0.00  0.00    +0.000 A 
ATOM     13  C   UNL     1      18.490  10.721  64.225  0.00  0.00    +0.000 A 
ATOM     14  C   UNL     1      18.834  11.428  65.370  0.00  0.00    +0.000 A 
ATOM     15  C   UNL     1      18.357  11.001  66.602  0.00  0.00    +0.000 A 
ATOM     16  C   UNL     1      17.910   9.696  66.731  0.00  0.00    +0.000 A 
ATOM     17  O   UNL     1      17.221   9.355  67.881  0.00  0.00    +0.000 OA
BRANCH  11  19
ATOM     18  C   UNL     1      19.190   6.827  66.262  0.00  0.00    +0.000 C 
ATOM     19  O   UNL     1      17.997   7.494  65.905  0.00  0.00    +0.000 OA
ENDBRANCH  11  19
ENDBRANCH   1  13
TORSDOF 3
ENDMDL
MODEL 9
REMARK VINA RESULT:       0.0     13.969     14.958
REMARK  Name = 
REMARK  3 active torsions:
REMARK  status: ('A' for Active; 'I' for Inactive)
REMARK    1  A    between atoms: O_2  and  C_3
REMARK    2  A    between atoms: C_5  and  C_6
REMARK    3  A    between atoms: C_7  and  C_8
REMARK                            x       y       z     vdW  Elec       q    Type
REMARK                         _______ _______ _______ _____ _____    ______ ____
ROOT
ATOM      1  C   UNL     1      -8.847  29.506  61.191  0.00  0.00    +0.000 C 
ATOM      2  C   UNL     1     -10.130  29.508  61.469  0.00  0.00    +0.000 C 
ENDROOT
BRANCH   2   3
ATOM      3  C   UNL     1     -11.055  30.087  60.483  0.00  0.00    +0.000 A 
ATOM      4  C   UNL     1     -11.619  31.342  60.670  0.00  0.00    +0.000 A 
ATOM      5  C   UNL     1     -11.735  32.262  59.664  0.00  0.00    +0.000 A 
ATOM      6  O   UNL     1     -11.807  33.640  59.872  0.00  0.00    +0.000 OA
ATOM      7  C   UNL     1     -11.485  31.851  58.361  0.00  0.00    +0.000 A 
ATOM      8  C   UNL     1     -11.345  30.491  58.112  0.00  0.00    +0.000 A 
ATOM      9  O   UNL     1     -10.970  30.135  56.815  0.00  0.00    +0.000 OA
ATOM     10  C   UNL     1     -11.089  29.629  59.171  0.00  0.00    +0.000 A 
ENDBRANCH   2   3
BRANCH   1  13
ATOM     11  C   UNL     1      -6.655  31.576  63.279  0.00  0.00    +0.000 A 
ATOM     12  C   UNL     1      -7.821  31.056  62.763  0.00  0.00    +0.000 A 
ATOM     13  C   UNL     1      -7.783  29.830  62.113  0.00  0.00    +0.000 A 
ATOM     14  C   UNL     1      -6.652  29.042  62.289  0.00  0.00    +0.000 A 
ATOM     15  C   UNL     1      -5.438  29.651  62.573  0.00  0.00    +0.000 A 
ATOM     16  C   UNL     1      -5.437  30.943  63.073  0.00  0.00    +0.000 A 
ATOM     17  O   UNL     1      -4.231  31.620  63.124  0.00  0.00    +0.000 OA
BRANCH  11  19
ATOM     18  C   UNL     1      -6.717  32.373  65.605  0.00  0.00    +0.000 C 
ATOM     19  O   UNL     1      -6.639  32.614  64.215  0.00  0.00    +0.000 OA
ENDBRANCH  11  19
ENDBRANCH   1  13
TORSDOF 3
ENDMDL
MODEL 10
REMARK VINA RESULT:       0.0     23.322     26.681
REMARK  Name = 
REMARK  3 active torsions:
REMARK  status: ('A' for Active; 'I' for Inactive)
REMARK    1  A    between atoms: O_2  and  C_3
REMARK    2  A    between atoms: C_5  and  C_6
REMARK    3  A    between atoms: C_7  and  C_8
REMARK                            x       y       z     vdW  Elec       q    Type
REMARK                         _______ _______ _______ _____ _____    ______ ____
ROOT
ATOM      1  C   UNL     1       4.359  18.214  80.585  0.00  0.00    +0.000 C 
ATOM      2  C   UNL     1       3.742  19.290  81.016  0.00  0.00    +0.000 C 
ENDROOT
BRANCH   2   3
ATOM      3  C   UNL     1       2.781  19.948  80.119  0.00  0.00    +0.000 A 
ATOM      4  C   UNL     1       3.151  21.031  79.332  0.00  0.00    +0.000 A 
ATOM      5  C   UNL     1       2.767  21.167  78.026  0.00  0.00    +0.000 A 
ATOM      6  O   UNL     1       3.474  21.908  77.078  0.00  0.00    +0.000 OA
ATOM      7  C   UNL     1       1.792  20.311  77.532  0.00  0.00    +0.000 A 
ATOM      8  C   UNL     1       1.101  19.507  78.430  0.00  0.00    +0.000 A 
ATOM      9  O   UNL     1       0.223  18.573  77.876  0.00  0.00    +0.000 OA
ATOM     10  C   UNL     1       1.625  19.301  79.700  0.00  0.00    +0.000 A 
ENDBRANCH   2   3
BRANCH   1  13
ATOM     11  C   UNL     1       7.988  18.740  80.566  0.00  0.00    +0.000 A 
ATOM     12  C   UNL     1       6.658  18.973  80.836  0.00  0.00    +0.000 A 
ATOM     13  C   UNL     1       5.761  17.916  80.766  0.00  0.00    +0.000 A 
ATOM     14  C   UNL     1       6.283  16.629  80.742  0.00  0.00    +0.000 A 
ATOM     15  C   UNL     1       7.554  16.420  80.226  0.00  0.00    +0.000 A 
ATOM     16  C   UNL     1       8.423  17.496  80.131  0.00  0.00    +0.000 A 
ATOM     17  O   UNL     1       9.587  17.329  79.402  0.00  0.00    +0.000 OA
BRANCH  11  19
ATOM     18  C   UNL     1       9.248  20.818  80.189  0.00  0.00    +0.000 C 
ATOM     19  O   UNL     1       9.001  19.636  80.921  0.00  0.00    +0.000 OA
ENDBRANCH  11  19
ENDBRANCH   1  13
TORSDOF 3
ENDMDL
