MODEL 1
REMARK VINA RESULT:      -0.0      0.000      0.000
REMARK  Name = 
REMARK  5 active torsions:
REMARK  status: ('A' for Active; 'I' for Inactive)
REMARK    1  A    between atoms: O_2  and  C_3
REMARK    2  A    between atoms: C_6  and  C_7
REMARK    3  A    between atoms: C_8  and  C_9
REMARK    4  A    between atoms: C_11  and  O_12
REMARK    5  A    between atoms: C_15  and  O_16
REMARK                            x       y       z     vdW  Elec       q    Type
REMARK                         _______ _______ _______ _____ _____    ______ ____
ROOT
ATOM      1  C   UNL     1       7.873  35.704  43.817  0.00  0.00    +0.000 C 
ATOM      2  C   UNL     1       7.435  36.046  45.015  0.00  0.00    +0.000 C 
ENDROOT
BRANCH   1   6
ATOM      3  C   UNL     1       8.425  31.804  44.932  0.00  0.00    +0.000 A 
ATOM      4  C   UNL     1       9.484  32.432  44.286  0.00  0.00    +0.000 A 
ATOM      5  C   UNL     1       9.311  33.663  43.666  0.00  0.00    +0.000 A 
ATOM      6  C   UNL     1       8.061  34.264  43.596  0.00  0.00    +0.000 A 
ATOM      7  C   UNL     1       6.990  33.421  43.867  0.00  0.00    +0.000 A 
ATOM      8  C   UNL     1       7.164  32.194  44.498  0.00  0.00    +0.000 A 
BRANCH   3  10
ATOM      9  C   UNL     1       9.636  31.563  47.072  0.00  0.00    +0.000 C 
ATOM     10  O   UNL     1       8.600  31.181  46.172  0.00  0.00    +0.000 OA
ENDBRANCH   3  10
ENDBRANCH   1   6
BRANCH   2  11
ATOM     11  C   UNL     1       8.234  35.538  46.141  0.00  0.00    +0.000 A 
ATOM     12  C   UNL     1       9.257  36.384  46.560  0.00  0.00    +0.000 A 
ATOM     13  C   UNL     1       9.666  36.442  47.885  0.00  0.00    +0.000 A 
ATOM     14  C   UNL     1       9.148  35.486  48.748  0.00  0.00    +0.000 A 
ATOM     15  C   UNL     1       8.054  34.744  48.388  0.00  0.00    +0.000 A 
ATOM     16  C   UNL     1       7.474  35.004  47.177  0.00  0.00    +0.000 A 
BRANCH  13  17
ATOM     17  O   UNL     1      10.449  37.483  48.383  0.00  0.00    +0.000 OA
ATOM     18  C   UNL     1      10.563  38.674  47.628  0.00  0.00    +0.000 C 
ENDBRANCH  13  17
BRANCH  15  19
ATOM     19  O   UNL     1       7.640  33.670  49.183  0.00  0.00    +0.000 OA
ATOM     20  C   UNL     1       6.549  32.906  48.715  0.00  0.00    +0.000 C 
ENDBRANCH  15  19
ENDBRANCH   2  11
TORSDOF 5
ENDMDL
MODEL 2
REMARK VINA RESULT:      -0.0     38.013     40.518
REMARK  Name = 
REMARK  5 active torsions:
REMARK  status: ('A' for Active; 'I' for Inactive)
REMARK    1  A    between atoms: O_2  and  C_3
REMARK    2  A    between atoms: C_6  and  C_7
REMARK    3  A    between atoms: C_8  and  C_9
REMARK    4  A    between atoms: C_11  and  O_12
REMARK    5  A    between atoms: C_15  and  O_16
REMARK                            x       y       z     vdW  Elec       q    Type
REMARK                         _______ _______ _______ _____ _____    ______ ____
ROOT
ATOM      1  C   UNL     1      -8.266   9.410  72.201  0.00  0.00    +0.000 C 
ATOM      2  C   UNL     1      -8.770  10.411  71.502  0.00  0.00    +0.000 C 
ENDROOT
BRANCH   1   6
ATOM      3  C   UNL     1     -11.975   7.896  73.045  0.00  0.00    +0.000 A 
ATOM      4  C   UNL     1     -11.102   8.061  74.114  0.00  0.00    +0.000 A 
ATOM      5  C   UNL     1      -9.758   8.342  73.900  0.00  0.00    +0.000 A 
ATOM      6  C   UNL     1      -9.226   8.380  72.619  0.00  0.00    +0.000 A 
ATOM      7  C   UNL     1     -10.021   7.799  71.638  0.00  0.00    +0.000 A 
ATOM      8  C   UNL     1     -11.369   7.529  71.849  0.00  0.00    +0.000 A 
BRANCH   3  10
ATOM      9  C   UNL     1     -13.569   9.604  73.847  0.00  0.00    +0.000 C 
ATOM     10  O   UNL     1     -13.255   8.459  73.061  0.00  0.00    +0.000 OA
ENDBRANCH   3  10
ENDBRANCH   1   6
BRANCH   2  11
ATOM     11  C   UNL     1      -9.902  11.107  72.132  0.00  0.00    +0.000 A 
ATOM     12  C   UNL     1      -9.549  12.188  72.935  0.00  0.00    +0.000 A 
ATOM     13  C   UNL     1     -10.370  13.299  73.072  0.00  0.00    +0.000 A 
ATOM     14  C   UNL     1     -11.646  13.213  72.532  0.00  0.00    +0.000 A 
ATOM     15  C   UNL     1     -11.955  12.225  71.636  0.00  0.00    +0.000 A 
ATOM     16  C   UNL     1     -10.962  11.359  71.267  0.00  0.00    +0.000 A 
BRANCH  13  17
ATOM     17  O   UNL     1      -9.915  14.507  73.601  0.00  0.00    +0.000 OA
ATOM     18  C   UNL     1      -8.521  14.737  73.676  0.00  0.00    +0.000 C 
ENDBRANCH  13  17
BRANCH  15  19
ATOM     19  O   UNL     1     -13.280  12.037  71.225  0.00  0.00    +0.000 OA
ATOM     20  C   UNL     1     -13.536  10.957  70.354  0.00  0.00    +0.000 C 
ENDBRANCH  15  19
ENDBRANCH   2  11
TORSDOF 5
ENDMDL
MODEL 3
REMARK VINA RESULT:      -0.0     20.490     22.677
REMARK  Name = 
REMARK  5 active torsions:
REMARK  status: ('A' for Active; 'I' for Inactive)
REMARK    1  A    between atoms: O_2  and  C_3
REMARK    2  A    between atoms: C_6  and  C_7
REMARK    3  A    between atoms: C_8  and  C_9
REMARK    4  A    between atoms: C_11  and  O_12
REMARK    5  A    between atoms: C_15  and  O_16
REMARK                            x       y       z     vdW  Elec       q    Type
REMARK                         _______ _______ _______ _____ _____    ______ ____
ROOT
ATOM      1  C   UNL     1       3.574  31.798  65.887  0.00  0.00    +0.000 C 
ATOM      2  C   UNL     1       2.777  31.671  66.933  0.00  0.00    +0.000 C 
ENDROOT
BRANCH   1   6
ATOM      3  C   UNL     1       4.564  27.825  65.935  0.00  0.00    +0.000 A 
ATOM      4  C   UNL     1       5.611  28.737  65.866  0.00  0.00    +0.000 A 
ATOM      5  C   UNL     1       5.371  30.081  65.609  0.00  0.00    +0.000 A 
ATOM      6  C   UNL     1       4.092  30.543  65.328  0.00  0.00    +0.000 A 
ATOM      7  C   UNL     1       3.175  29.554  64.992  0.00  0.00    +0.000 A 
ATOM      8  C   UNL     1       3.412  28.210  65.260  0.00  0.00    +0.000 A 
BRANCH   3  10
ATOM      9  C   UNL     1       5.189  27.001  68.178  0.00  0.00    +0.000 C 
ATOM     10  O   UNL     1       4.523  26.843  66.929  0.00  0.00    +0.000 OA
ENDBRANCH   3  10
ENDBRANCH   1   6
BRANCH   2  11
ATOM     11  C   UNL     1       3.333  30.899  68.054  0.00  0.00    +0.000 A 
ATOM     12  C   UNL     1       4.023  31.653  68.998  0.00  0.00    +0.000 A 
ATOM     13  C   UNL     1       4.048  31.303  70.341  0.00  0.00    +0.000 A 
ATOM     14  C   UNL     1       3.519  30.066  70.682  0.00  0.00    +0.000 A 
ATOM     15  C   UNL     1       2.727  29.382  69.798  0.00  0.00    +0.000 A 
ATOM     16  C   UNL     1       2.447  29.974  68.597  0.00  0.00    +0.000 A 
BRANCH  13  17
ATOM     17  O   UNL     1       4.452  32.190  71.339  0.00  0.00    +0.000 OA
ATOM     18  C   UNL     1       4.518  33.571  71.040  0.00  0.00    +0.000 C 
ENDBRANCH  13  17
BRANCH  15  19
ATOM     19  O   UNL     1       2.336  28.067  70.075  0.00  0.00    +0.000 OA
ATOM     20  C   UNL     1       1.577  27.401  69.090  0.00  0.00    +0.000 C 
ENDBRANCH  15  19
ENDBRANCH   2  11
TORSDOF 5
ENDMDL
MODEL 4
REMARK VINA RESULT:      -0.0     33.036     35.622
REMARK  Name = 
REMARK  5 active torsions:
REMARK  status: ('A' for Active; 'I' for Inactive)
REMARK    1  A    between atoms: O_2  and  C_3
REMARK    2  A    between atoms: C_6  and  C_7
REMARK    3  A    between atoms: C_8  and  C_9
REMARK    4  A    between atoms: C_11  and  O_12
REMARK    5  A    between atoms: C_15  and  O_16
REMARK                            x       y       z     vdW  Elec       q    Type
REMARK                         _______ _______ _______ _____ _____    ______ ____
ROOT
ATOM      1  C   UNL     1       6.303  12.838  71.904  0.00  0.00    +0.000 C 
ATOM      2  C   UNL     1       7.361  12.970  72.684  0.00  0.00    +0.000 C 
ENDROOT
BRANCH   1   6
ATOM      3  C   UNL     1       4.047  15.335  74.236  0.00  0.00    +0.000 A 
ATOM      4  C   UNL     1       3.484  14.110  73.894  0.00  0.00    +0.000 A 
ATOM      5  C   UNL     1       4.067  13.304  72.924  0.00  0.00    +0.000 A 
ATOM      6  C   UNL     1       5.176  13.730  72.205  0.00  0.00    +0.000 A 
ATOM      7  C   UNL     1       5.431  15.095  72.278  0.00  0.00    +0.000 A 
ATOM      8  C   UNL     1       4.855  15.898  73.257  0.00  0.00    +0.000 A 
BRANCH   3  10
ATOM      9  C   UNL     1       4.181  14.806  76.646  0.00  0.00    +0.000 C 
ATOM     10  O   UNL     1       4.142  15.740  75.571  0.00  0.00    +0.000 OA
ENDBRANCH   3  10
ENDBRANCH   1   6
BRANCH   2  11
ATOM     11  C   UNL     1       7.093  12.854  74.126  0.00  0.00    +0.000 A 
ATOM     12  C   UNL     1       7.200  11.565  74.638  0.00  0.00    +0.000 A 
ATOM     13  C   UNL     1       7.622  11.324  75.939  0.00  0.00    +0.000 A 
ATOM     14  C   UNL     1       7.751  12.425  76.775  0.00  0.00    +0.000 A 
ATOM     15  C   UNL     1       7.781  13.692  76.256  0.00  0.00    +0.000 A 
ATOM     16  C   UNL     1       7.719  13.829  74.897  0.00  0.00    +0.000 A 
BRANCH  13  17
ATOM     17  O   UNL     1       8.036  10.064  76.372  0.00  0.00    +0.000 OA
ATOM     18  C   UNL     1       8.352   9.080  75.406  0.00  0.00    +0.000 C 
ENDBRANCH  13  17
BRANCH  15  19
ATOM     19  O   UNL     1       7.740  14.802  77.107  0.00  0.00    +0.000 OA
ATOM     20  C   UNL     1       7.704  16.075  76.501  0.00  0.00    +0.000 C 
ENDBRANCH  15  19
ENDBRANCH   2  11
TORSDOF 5
ENDMDL
MODEL 5
REMARK VINA RESULT:      -0.0     19.003     22.104
REMARK  Name = 
REMARK  5 active torsions:
REMARK  status: ('A' for Active; 'I' for Inactive)
REMARK    1  A    between atoms: O_2  and  C_3
REMARK    2  A    between atoms: C_6  and  C_7
REMARK    3  A    between atoms: C_8  and  C_9
REMARK    4  A    between atoms: C_11  and  O_12
REMARK    5  A    between atoms: C_15  and  O_16
REMARK                            x       y       z     vdW  Elec       q    Type
REMARK                         _______ _______ _______ _____ _____    ______ ____
ROOT
ATOM      1  C   UNL     1       0.798  17.329  57.985  0.00  0.00    +0.000 C 
ATOM      2  C   UNL     1       0.886  17.384  56.668  0.00  0.00    +0.000 C 
ENDROOT
BRANCH   1   6
ATOM      3  C   UNL     1       4.868  17.281  58.435  0.00  0.00    +0.000 A 
ATOM      4  C   UNL     1       4.144  16.315  59.125  0.00  0.00    +0.000 A 
ATOM      5  C   UNL     1       2.761  16.395  59.223  0.00  0.00    +0.000 A 
ATOM      6  C   UNL     1       2.065  17.483  58.713  0.00  0.00    +0.000 A 
ATOM      7  C   UNL     1       2.847  18.595  58.426  0.00  0.00    +0.000 A 
ATOM      8  C   UNL     1       4.231  18.510  58.317  0.00  0.00    +0.000 A 
BRANCH   3  10
ATOM      9  C   UNL     1       5.992  15.650  56.959  0.00  0.00    +0.000 C 
ATOM     10  O   UNL     1       5.919  16.928  57.583  0.00  0.00    +0.000 OA
ENDBRANCH   3  10
ENDBRANCH   1   6
BRANCH   2  11
ATOM     11  C   UNL     1       1.845  16.445  56.066  0.00  0.00    +0.000 A 
ATOM     12  C   UNL     1       1.312  15.207  55.721  0.00  0.00    +0.000 A 
ATOM     13  C   UNL     1       1.787  14.480  54.637  0.00  0.00    +0.000 A 
ATOM     14  C   UNL     1       2.943  14.943  54.023  0.00  0.00    +0.000 A 
ATOM     15  C   UNL     1       3.394  16.214  54.261  0.00  0.00    +0.000 A 
ATOM     16  C   UNL     1       2.653  17.014  55.086  0.00  0.00    +0.000 A 
BRANCH  13  17
ATOM     17  O   UNL     1       1.081  13.411  54.084  0.00  0.00    +0.000 OA
ATOM     18  C   UNL     1      -0.291  13.266  54.394  0.00  0.00    +0.000 C 
ENDBRANCH  13  17
BRANCH  15  19
ATOM     19  O   UNL     1       4.643  16.620  53.777  0.00  0.00    +0.000 OA
ATOM     20  C   UNL     1       5.075  17.918  54.120  0.00  0.00    +0.000 C 
ENDBRANCH  15  19
ENDBRANCH   2  11
TORSDOF 5
ENDMDL
MODEL 6
REMARK VINA RESULT:      -0.0     12.060     14.138
REMARK  Name = 
REMARK  5 active torsions:
REMARK  status: ('A' for Active; 'I' for Inactive)
REMARK    1  A    between atoms: O_2  and  C_3
REMARK    2  A    between atoms: C_6  and  C_7
REMARK    3  A    between atoms: C_8  and  C_9
REMARK    4  A    between atoms: C_11  and  O_12
REMARK    5  A    between atoms: C_15  and  O_16
REMARK                            x       y       z     vdW  Elec       q    Type
REMARK                         _______ _______ _______ _____ _____    ______ ____
ROOT
ATOM      1  C   UNL     1      12.615  31.068  56.901  0.00  0.00    +0.000 C 
ATOM      2  C   UNL     1      13.552  31.972  57.126  0.00  0.00    +0.000 C 
ENDROOT
BRANCH   1   6
ATOM      3  C   UNL     1      14.563  28.235  59.125  0.00  0.00    +0.000 A 
ATOM      4  C   UNL     1      14.138  27.860  57.855  0.00  0.00    +0.000 A 
ATOM      5  C   UNL     1      13.272  28.665  57.126  0.00  0.00    +0.000 A 
ATOM      6  C   UNL     1      12.735  29.823  57.672  0.00  0.00    +0.000 A 
ATOM      7  C   UNL     1      12.846  29.924  59.054  0.00  0.00    +0.000 A 
ATOM      8  C   UNL     1      13.722  29.125  59.780  0.00  0.00    +0.000 A 
BRANCH   3  10
ATOM      9  C   UNL     1      16.964  28.043  58.576  0.00  0.00    +0.000 C 
ATOM     10  O   UNL     1      15.896  28.080  59.518  0.00  0.00    +0.000 OA
ENDBRANCH   3  10
ENDBRANCH   1   6
BRANCH   2  11
ATOM     11  C   UNL     1      14.933  31.495  56.961  0.00  0.00    +0.000 A 
ATOM     12  C   UNL     1      15.456  31.650  55.680  0.00  0.00    +0.000 A 
ATOM     13  C   UNL     1      16.807  31.886  55.462  0.00  0.00    +0.000 A 
ATOM     14  C   UNL     1      17.653  31.771  56.556  0.00  0.00    +0.000 A 
ATOM     15  C   UNL     1      17.145  31.753  57.828  0.00  0.00    +0.000 A 
ATOM     16  C   UNL     1      15.793  31.891  57.981  0.00  0.00    +0.000 A 
BRANCH  13  17
ATOM     17  O   UNL     1      17.299  32.353  54.243  0.00  0.00    +0.000 OA
ATOM     18  C   UNL     1      16.395  32.916  53.312  0.00  0.00    +0.000 C 
ENDBRANCH  13  17
BRANCH  15  19
ATOM     19  O   UNL     1      17.979  31.468  58.915  0.00  0.00    +0.000 OA
ATOM     20  C   UNL     1      17.376  31.399  60.188  0.00  0.00    +0.000 C 
ENDBRANCH  15  19
ENDBRANCH   2  11
TORSDOF 5
ENDMDL
MODEL 7
REMARK VINA RESULT:      -0.0     22.277     24.367
REMARK  Name = 
REMARK  5 active torsions:
REMARK  status: ('A' for Active; 'I' for Inactive)
REMARK    1  A    between atoms: O_2  and  C_3
REMARK    2  A    between atoms: C_6  and  C_7
REMARK    3  A    between atoms: C_8  and  C_9
REMARK    4  A    between atoms: C_11  and  O_12
REMARK    5  A    between atoms: C_15  and  O_16
REMARK                            x       y       z     vdW  Elec       q    Type
REMARK                         _______ _______ _______ _____ _____    ______ ____
ROOT
ATOM      1  C   UNL     1       4.210  31.263  67.379  0.00  0.00    +0.000 C 
ATOM      2  C   UNL     1       3.335  31.283  68.368  0.00  0.00    +0.000 C 
ENDROOT
BRANCH   1   6
ATOM      3  C   UNL     1       5.487  27.496  68.350  0.00  0.00    +0.000 A 
ATOM      4  C   UNL     1       6.465  28.466  68.161  0.00  0.00    +0.000 A 
ATOM      5  C   UNL     1       6.149  29.699  67.605  0.00  0.00    +0.000 A 
ATOM      6  C   UNL     1       4.869  29.972  67.141  0.00  0.00    +0.000 A 
ATOM      7  C   UNL     1       4.062  28.855  66.961  0.00  0.00    +0.000 A 
ATOM      8  C   UNL     1       4.374  27.624  67.528  0.00  0.00    +0.000 A 
BRANCH   3  10
ATOM      9  C   UNL     1       5.969  27.217  70.756  0.00  0.00    +0.000 C 
ATOM     10  O   UNL     1       5.431  26.742  69.526  0.00  0.00    +0.000 OA
ENDBRANCH   3  10
ENDBRANCH   1   6
BRANCH   2  11
ATOM     11  C   UNL     1       3.845  30.815  69.666  0.00  0.00    +0.000 A 
ATOM     12  C   UNL     1       4.390  31.809  70.473  0.00  0.00    +0.000 A 
ATOM     13  C   UNL     1       4.321  31.750  71.858  0.00  0.00    +0.000 A 
ATOM     14  C   UNL     1       3.857  30.567  72.418  0.00  0.00    +0.000 A 
ATOM     15  C   UNL     1       3.200  29.645  71.647  0.00  0.00    +0.000 A 
ATOM     16  C   UNL     1       2.986  29.946  70.330  0.00  0.00    +0.000 A 
BRANCH  13  17
ATOM     17  O   UNL     1       4.567  32.858  72.669  0.00  0.00    +0.000 OA
ATOM     18  C   UNL     1       4.556  34.147  72.087  0.00  0.00    +0.000 C 
ENDBRANCH  13  17
BRANCH  15  19
ATOM     19  O   UNL     1       2.885  28.386  72.171  0.00  0.00    +0.000 OA
ATOM     20  C   UNL     1       2.271  27.462  71.300  0.00  0.00    +0.000 C 
ENDBRANCH  15  19
ENDBRANCH   2  11
TORSDOF 5
ENDMDL
MODEL 8
REMARK VINA RESULT:      -0.0     11.788     14.253
REMARK  Name = 
REMARK  5 active torsions:
REMARK  status: ('A' for Active; 'I' for Inactive)
REMARK    1  A    between atoms: O_2  and  C_3
REMARK    2  A    between atoms: C_6  and  C_7
REMARK    3  A    between atoms: C_8  and  C_9
REMARK    4  A    between atoms: C_11  and  O_12
REMARK    5  A    between atoms: C_15  and  O_16
REMARK                            x       y       z     vdW  Elec       q    Type
REMARK                         _______ _______ _______ _____ _____    ______ ____
ROOT
ATOM      1  C   UNL     1       5.238  28.764  55.588  0.00  0.00    +0.000 C 
ATOM      2  C   UNL     1       4.855  27.643  56.172  0.00  0.00    +0.000 C 
ENDROOT
BRANCH   1   6
ATOM      3  C   UNL     1       2.163  30.892  57.257  0.00  0.00    +0.000 A 
ATOM      4  C   UNL     1       2.354  31.026  55.886  0.00  0.00    +0.000 A 
ATOM      5  C   UNL     1       3.501  30.537  55.274  0.00  0.00    +0.000 A 
ATOM      6  C   UNL     1       4.531  29.978  56.019  0.00  0.00    +0.000 A 
ATOM      7  C   UNL     1       4.483  30.251  57.381  0.00  0.00    +0.000 A 
ATOM      8  C   UNL     1       3.329  30.730  57.994  0.00  0.00    +0.000 A 
BRANCH   3  10
ATOM      9  C   UNL     1      -0.031  29.780  57.026  0.00  0.00    +0.000 C 
ATOM     10  O   UNL     1       0.921  30.522  57.782  0.00  0.00    +0.000 OA
ENDBRANCH   3  10
ENDBRANCH   1   6
BRANCH   2  11
ATOM     11  C   UNL     1       3.415  27.354  56.089  0.00  0.00    +0.000 A 
ATOM     12  C   UNL     1       3.032  26.604  54.981  0.00  0.00    +0.000 A 
ATOM     13  C   UNL     1       1.964  25.719  55.028  0.00  0.00    +0.000 A 
ATOM     14  C   UNL     1       1.168  25.748  56.165  0.00  0.00    +0.000 A 
ATOM     15  C   UNL     1       1.605  26.374  57.303  0.00  0.00    +0.000 A 
ATOM     16  C   UNL     1       2.855  26.928  57.290  0.00  0.00    +0.000 A 
BRANCH  13  17
ATOM     17  O   UNL     1       1.758  24.741  54.055  0.00  0.00    +0.000 OA
ATOM     18  C   UNL     1       2.820  24.414  53.180  0.00  0.00    +0.000 C 
ENDBRANCH  13  17
BRANCH  15  19
ATOM     19  O   UNL     1       0.738  26.548  58.387  0.00  0.00    +0.000 OA
ATOM     20  C   UNL     1       1.233  27.263  59.498  0.00  0.00    +0.000 C 
ENDBRANCH  15  19
ENDBRANCH   2  11
TORSDOF 5
ENDMDL
MODEL 9
REMARK VINA RESULT:      -0.0      6.610      9.356
REMARK  Name = 
REMARK  5 active torsions:
REMARK  status: ('A' for Active; 'I' for Inactive)
REMARK    1  A    between atoms: O_2  and  C_3
REMARK    2  A    between atoms: C_6  and  C_7
REMARK    3  A    between atoms: C_8  and  C_9
REMARK    4  A    between atoms: C_11  and  O_12
REMARK    5  A    between atoms: C_15  and  O_16
REMARK                            x       y       z     vdW  Elec       q    Type
REMARK                         _______ _______ _______ _____ _____    ______ ____
ROOT
ATOM      1  C   UNL     1      14.092  30.117  52.091  0.00  0.00    +0.000 C 
ATOM      2  C   UNL     1      13.668  28.866  52.102  0.00  0.00    +0.000 C 
ENDROOT
BRANCH   1   6
ATOM      3  C   UNL     1      10.294  31.598  52.472  0.00  0.00    +0.000 A 
ATOM      4  C   UNL     1      11.085  32.139  51.465  0.00  0.00    +0.000 A 
ATOM      5  C   UNL     1      12.448  31.874  51.409  0.00  0.00    +0.000 A 
ATOM      6  C   UNL     1      13.078  31.134  52.400  0.00  0.00    +0.000 A 
ATOM      7  C   UNL     1      12.348  30.987  53.574  0.00  0.00    +0.000 A 
ATOM      8  C   UNL     1      10.982  31.242  53.625  0.00  0.00    +0.000 A 
BRANCH   3  10
ATOM      9  C   UNL     1       8.684  30.570  50.905  0.00  0.00    +0.000 C 
ATOM     10  O   UNL     1       9.030  31.068  52.194  0.00  0.00    +0.000 OA
ENDBRANCH   3  10
ENDBRANCH   1   6
BRANCH   2  11
ATOM     11  C   UNL     1      12.507  28.592  51.241  0.00  0.00    +0.000 A 
ATOM     12  C   UNL     1      12.821  28.202  49.943  0.00  0.00    +0.000 A 
ATOM     13  C   UNL     1      12.018  27.326  49.225  0.00  0.00    +0.000 A 
ATOM     14  C   UNL     1      10.787  27.001  49.777  0.00  0.00    +0.000 A 
ATOM     15  C   UNL     1      10.525  27.264  51.095  0.00  0.00    +0.000 A 
ATOM     16  C   UNL     1      11.523  27.818  51.849  0.00  0.00    +0.000 A 
BRANCH  13  17
ATOM     17  O   UNL     1      12.460  26.681  48.069  0.00  0.00    +0.000 OA
ATOM     18  C   UNL     1      13.847  26.640  47.798  0.00  0.00    +0.000 C 
ENDBRANCH  13  17
BRANCH  15  19
ATOM     19  O   UNL     1       9.233  27.092  51.604  0.00  0.00    +0.000 OA
ATOM     20  C   UNL     1       9.020  27.451  52.952  0.00  0.00    +0.000 C 
ENDBRANCH  15  19
ENDBRANCH   2  11
TORSDOF 5
ENDMDL
MODEL 10
REMARK VINA RESULT:      -0.0     40.815     43.694
REMARK  Name = 
REMARK  5 active torsions:
REMARK  status: ('A' for Active; 'I' for Inactive)
REMARK    1  A    between atoms: O_2  and  C_3
REMARK    2  A    between atoms: C_6  and  C_7
REMARK    3  A    between atoms: C_8  and  C_9
REMARK    4  A    between atoms: C_11  and  O_12
REMARK    5  A    between atoms: C_15  and  O_16
REMARK                            x       y       z     vdW  Elec       q    Type
REMARK                         _______ _______ _______ _____ _____    ______ ____
ROOT
ATOM      1  C   UNL     1      18.504   2.102  73.432  0.00  0.00    +0.000 C 
ATOM      2  C   UNL     1      18.779   0.812  73.490  0.00  0.00    +0.000 C 
ENDROOT
BRANCH   1   6
ATOM      3  C   UNL     1      16.516   1.703  69.875  0.00  0.00    +0.000 A 
ATOM      4  C   UNL     1      17.477   2.706  69.953  0.00  0.00    +0.000 A 
ATOM      5  C   UNL     1      18.030   3.069  71.175  0.00  0.00    +0.000 A 
ATOM      6  C   UNL     1      17.582   2.508  72.363  0.00  0.00    +0.000 A 
ATOM      7  C   UNL     1      16.361   1.850  72.275  0.00  0.00    +0.000 A 
ATOM      8  C   UNL     1      15.814   1.477  71.052  0.00  0.00    +0.000 A 
BRANCH   3  10
ATOM      9  C   UNL     1      17.767   0.381  68.204  0.00  0.00    +0.000 C 
ATOM     10  O   UNL     1      16.555   0.740  68.862  0.00  0.00    +0.000 OA
ENDBRANCH   3  10
ENDBRANCH   1   6
BRANCH   2  11
ATOM     11  C   UNL     1      19.284   0.223  72.240  0.00  0.00    +0.000 A 
ATOM     12  C   UNL     1      20.668   0.249  72.100  0.00  0.00    +0.000 A 
ATOM     13  C   UNL     1      21.355  -0.742  71.411  0.00  0.00    +0.000 A 
ATOM     14  C   UNL     1      20.594  -1.662  70.702  0.00  0.00    +0.000 A 
ATOM     15  C   UNL     1      19.250  -1.780  70.938  0.00  0.00    +0.000 A 
ATOM     16  C   UNL     1      18.698  -0.996  71.913  0.00  0.00    +0.000 A 
BRANCH  13  17
ATOM     17  O   UNL     1      22.735  -0.913  71.522  0.00  0.00    +0.000 OA
ATOM     18  C   UNL     1      23.414  -0.303  72.602  0.00  0.00    +0.000 C 
ENDBRANCH  13  17
BRANCH  15  19
ATOM     19  O   UNL     1      18.458  -2.582  70.108  0.00  0.00    +0.000 OA
ATOM     20  C   UNL     1      17.072  -2.600  70.365  0.00  0.00    +0.000 C 
ENDBRANCH  15  19
ENDBRANCH   2  11
TORSDOF 5
ENDMDL
