REMARK  Name = 
REMARK  2 active torsions:
REMARK  status: ('A' for Active; 'I' for Inactive)
REMARK    1  A    between atoms: C_7  and  C_8
REMARK    2  A    between atoms: C_9  and  C_10
REMARK                            x       y       z     vdW  Elec       q    Type
REMARK                         _______ _______ _______ _____ _____    ______ ____
ROOT
ATOM      1  C   UNL     1      -0.486   0.929  -0.472  0.00  0.00    +0.000 C 
ATOM      2  C   UNL     1       0.358   0.246   0.279  0.00  0.00    +0.000 C 
ENDROOT
BRANCH   1   9
ATOM      3  O   UNL     1      -5.218   2.221  -0.734  0.00  0.00    +0.000 OA
ATOM      4  C   UNL     1      -4.185   1.349  -0.376  0.00  0.00    +0.000 A 
ATOM      5  C   UNL     1      -4.515   0.042  -0.045  0.00  0.00    +0.000 A 
ATOM      6  C   UNL     1      -3.591  -0.992  -0.127  0.00  0.00    +0.000 A 
ATOM      7  O   UNL     1      -3.857  -2.259   0.397  0.00  0.00    +0.000 OA
ATOM      8  C   UNL     1      -2.386  -0.670  -0.731  0.00  0.00    +0.000 A 
ATOM      9  C   UNL     1      -1.924   0.624  -0.507  0.00  0.00    +0.000 A 
ATOM     10  C   UNL     1      -2.866   1.626  -0.709  0.00  0.00    +0.000 A 
ENDBRANCH   1   9
BRANCH   2  11
ATOM     11  C   UNL     1       1.712  -0.066  -0.124  0.00  0.00    +0.000 A 
ATOM     12  C   UNL     1       2.330   0.743  -1.071  0.00  0.00    +0.000 A 
ATOM     13  C   UNL     1       3.666   0.504  -1.283  0.00  0.00    +0.000 A 
ATOM     14  C   UNL     1       4.452  -0.251  -0.434  0.00  0.00    +0.000 A 
ATOM     15  O   UNL     1       5.780   0.117  -0.204  0.00  0.00    +0.000 OA
ATOM     16  C   UNL     1       3.793  -1.141   0.405  0.00  0.00    +0.000 A 
ATOM     17  O   UNL     1       4.521  -1.975   1.228  0.00  0.00    +0.000 OA
ATOM     18  C   UNL     1       2.417  -1.048   0.544  0.00  0.00    +0.000 A 
ENDBRANCH   2  11
TORSDOF 2
