REMARK  Name = 
REMARK  7 active torsions:
REMARK  status: ('A' for Active; 'I' for Inactive)
REMARK    1  A    between atoms: O_2  and  C_3
REMARK    2  A    between atoms: C_6  and  C_7
REMARK    3  A    between atoms: C_8  and  C_9
REMARK    4  A    between atoms: C_11  and  O_12
REMARK    5  A    between atoms: C_14  and  O_15
REMARK    6  A    between atoms: C_17  and  O_18
REMARK    7  A    between atoms: C_22  and  N_23
REMARK                            x       y       z     vdW  Elec       q    Type
REMARK                         _______ _______ _______ _____ _____    ______ ____
ROOT
ATOM      1  C   UNL     1      -0.470  -1.858  -0.562  0.00  0.00    +0.000 C 
ATOM      2  C   UNL     1       0.376  -1.867   0.466  0.00  0.00    +0.000 C 
ENDROOT
BRANCH   1   6
ATOM      3  C   UNL     1      -3.948   0.348  -1.142  0.00  0.00    +0.000 A 
ATOM      4  C   UNL     1      -2.985   0.269  -2.114  0.00  0.00    +0.000 A 
ATOM      5  C   UNL     1      -1.714  -0.191  -1.796  0.00  0.00    +0.000 A 
ATOM      6  C   UNL     1      -1.408  -0.724  -0.550  0.00  0.00    +0.000 A 
ATOM      7  C   UNL     1      -2.454  -0.734   0.366  0.00  0.00    +0.000 A 
ATOM      8  C   UNL     1      -3.748  -0.372   0.015  0.00  0.00    +0.000 A 
BRANCH   8   9
ATOM      9  N   UNL     1      -4.888  -0.768   0.786  0.00  0.00    +0.000 N 
ATOM     10  O   UNL     1      -5.334  -1.942   0.705  0.00  0.00    +0.000 OA
ATOM     11  O   UNL     1      -5.187  -0.025   1.913  0.00  0.00    +0.000 OA
ENDBRANCH   8   9
BRANCH   3  13
ATOM     12  C   UNL     1      -4.598   2.587  -0.649  0.00  0.00    +0.000 C 
ATOM     13  O   UNL     1      -4.967   1.307  -1.155  0.00  0.00    +0.000 OA
ENDBRANCH   3  13
ENDBRANCH   1   6
BRANCH   2  14
ATOM     14  C   UNL     1       1.195  -0.655   0.614  0.00  0.00    +0.000 A 
ATOM     15  C   UNL     1       1.363   0.255  -0.419  0.00  0.00    +0.000 A 
ATOM     16  C   UNL     1       2.597   0.844  -0.668  0.00  0.00    +0.000 A 
ATOM     17  C   UNL     1       3.728   0.448   0.034  0.00  0.00    +0.000 A 
ATOM     18  C   UNL     1       3.492  -0.163   1.261  0.00  0.00    +0.000 A 
ATOM     19  C   UNL     1       2.251  -0.728   1.514  0.00  0.00    +0.000 A 
BRANCH  16  20
ATOM     20  O   UNL     1       2.787   1.788  -1.667  0.00  0.00    +0.000 OA
ATOM     21  C   UNL     1       3.306   3.063  -1.297  0.00  0.00    +0.000 C 
ENDBRANCH  16  20
BRANCH  17  22
ATOM     22  O   UNL     1       4.948   0.288  -0.625  0.00  0.00    +0.000 OA
ATOM     23  C   UNL     1       5.374  -0.976  -1.113  0.00  0.00    +0.000 C 
ENDBRANCH  17  22
BRANCH  18  24
ATOM     24  O   UNL     1       4.640  -0.545   1.962  0.00  0.00    +0.000 OA
ATOM     25  C   UNL     1       5.643   0.352   2.360  0.00  0.00    +0.000 C 
ENDBRANCH  18  24
ENDBRANCH   2  14
TORSDOF 7
