REMARK  Name = 
REMARK  6 active torsions:
REMARK  status: ('A' for Active; 'I' for Inactive)
REMARK    1  A    between atoms: O_2  and  C_3
REMARK    2  A    between atoms: C_6  and  C_7
REMARK    3  A    between atoms: C_8  and  C_9
REMARK    4  A    between atoms: C_11  and  O_12
REMARK    5  A    between atoms: C_14  and  O_15
REMARK    6  A    between atoms: C_17  and  O_18
REMARK                            x       y       z     vdW  Elec       q    Type
REMARK                         _______ _______ _______ _____ _____    ______ ____
ROOT
ATOM      1  C   UNL     1      -1.099   0.353   0.757  0.00  0.00    +0.000 A 
ATOM      2  C   UNL     1      -1.732  -0.846   1.059  0.00  0.00    +0.000 A 
ATOM      3  C   UNL     1      -2.960  -1.184   0.508  0.00  0.00    +0.000 A 
ATOM      4  C   UNL     1      -3.534  -0.252  -0.345  0.00  0.00    +0.000 A 
ATOM      5  C   UNL     1      -3.037   1.033  -0.454  0.00  0.00    +0.000 A 
ATOM      6  C   UNL     1      -1.795   1.347   0.081  0.00  0.00    +0.000 A 
ENDROOT
BRANCH   1   8
ATOM      7  C   UNL     1       1.006  -0.136  -0.209  0.00  0.00    +0.000 C 
ATOM      8  C   UNL     1       0.366   0.427   0.816  0.00  0.00    +0.000 C 
BRANCH   7  12
ATOM      9  C   UNL     1       5.169   0.407  -0.159  0.00  0.00    +0.000 A 
ATOM     10  C   UNL     1       4.402   0.867  -1.222  0.00  0.00    +0.000 A 
ATOM     11  C   UNL     1       3.039   0.748  -1.167  0.00  0.00    +0.000 A 
ATOM     12  C   UNL     1       2.471  -0.054  -0.191  0.00  0.00    +0.000 A 
ATOM     13  C   UNL     1       3.206  -0.505   0.896  0.00  0.00    +0.000 A 
ATOM     14  C   UNL     1       4.542  -0.144   0.930  0.00  0.00    +0.000 A 
BRANCH   9  16
ATOM     15  C   UNL     1       7.372  -0.628   0.255  0.00  0.00    +0.000 C 
ATOM     16  O   UNL     1       6.532   0.299  -0.390  0.00  0.00    +0.000 OA
ENDBRANCH   9  16
ENDBRANCH   7  12
ENDBRANCH   1   8
BRANCH   3  17
ATOM     17  O   UNL     1      -3.679  -2.299   0.947  0.00  0.00    +0.000 OA
ATOM     18  C   UNL     1      -3.537  -2.688   2.311  0.00  0.00    +0.000 C 
ENDBRANCH   3  17
BRANCH   4  19
ATOM     19  O   UNL     1      -4.549  -0.653  -1.186  0.00  0.00    +0.000 OA
ATOM     20  C   UNL     1      -4.332  -1.460  -2.340  0.00  0.00    +0.000 C 
ENDBRANCH   4  19
BRANCH   5  21
ATOM     21  O   UNL     1      -3.905   2.073  -0.794  0.00  0.00    +0.000 OA
ATOM     22  C   UNL     1      -3.944   3.296  -0.103  0.00  0.00    +0.000 C 
ENDBRANCH   5  21
TORSDOF 6
