MODEL 1
REMARK VINA RESULT:      -0.0      0.000      0.000
REMARK  Name = 
REMARK  6 active torsions:
REMARK  status: ('A' for Active; 'I' for Inactive)
REMARK    1  A    between atoms: O_2  and  C_3
REMARK    2  A    between atoms: C_6  and  C_7
REMARK    3  A    between atoms: C_8  and  C_9
REMARK    4  A    between atoms: C_11  and  O_12
REMARK    5  A    between atoms: C_14  and  O_15
REMARK    6  A    between atoms: C_17  and  O_18
REMARK                            x       y       z     vdW  Elec       q    Type
REMARK                         _______ _______ _______ _____ _____    ______ ____
ROOT
ATOM      1  C   UNL     1      10.314  31.750  77.933  0.00  0.00    +0.000 A 
ATOM      2  C   UNL     1      10.172  30.924  79.040  0.00  0.00    +0.000 A 
ATOM      3  C   UNL     1       9.470  29.729  78.976  0.00  0.00    +0.000 A 
ATOM      4  C   UNL     1       8.897  29.412  77.752  0.00  0.00    +0.000 A 
ATOM      5  C   UNL     1       8.822  30.335  76.727  0.00  0.00    +0.000 A 
ATOM      6  C   UNL     1       9.552  31.514  76.796  0.00  0.00    +0.000 A 
ENDROOT
BRANCH   1   8
ATOM      7  C   UNL     1      12.491  32.130  77.084  0.00  0.00    +0.000 C 
ATOM      8  C   UNL     1      11.497  32.614  77.828  0.00  0.00    +0.000 C 
BRANCH   7  12
ATOM      9  C   UNL     1      15.846  34.652  76.965  0.00  0.00    +0.000 A 
ATOM     10  C   UNL     1      14.581  35.159  77.237  0.00  0.00    +0.000 A 
ATOM     11  C   UNL     1      13.523  34.297  77.351  0.00  0.00    +0.000 A 
ATOM     12  C   UNL     1      13.676  32.984  76.939  0.00  0.00    +0.000 A 
ATOM     13  C   UNL     1      14.929  32.443  76.687  0.00  0.00    +0.000 A 
ATOM     14  C   UNL     1      16.009  33.296  76.831  0.00  0.00    +0.000 A 
BRANCH   9  16
ATOM     15  C   UNL     1      16.522  36.898  76.194  0.00  0.00    +0.000 C 
ATOM     16  O   UNL     1      16.807  35.577  76.589  0.00  0.00    +0.000 OA
ENDBRANCH   9  16
ENDBRANCH   7  12
ENDBRANCH   1   8
BRANCH   3  17
ATOM     17  O   UNL     1       9.173  28.990  80.124  0.00  0.00    +0.000 OA
ATOM     18  C   UNL     1      10.199  28.163  80.668  0.00  0.00    +0.000 C 
ENDBRANCH   3  17
BRANCH   4  19
ATOM     19  O   UNL     1       8.500  28.114  77.518  0.00  0.00    +0.000 OA
ATOM     20  C   UNL     1       9.355  27.129  76.944  0.00  0.00    +0.000 C 
ENDBRANCH   4  19
BRANCH   5  21
ATOM     21  O   UNL     1       7.779  30.244  75.802  0.00  0.00    +0.000 OA
ATOM     22  C   UNL     1       7.977  29.892  74.456  0.00  0.00    +0.000 C 
ENDBRANCH   5  21
TORSDOF 6
ENDMDL
MODEL 2
REMARK VINA RESULT:      -0.0     29.158     32.293
REMARK  Name = 
REMARK  6 active torsions:
REMARK  status: ('A' for Active; 'I' for Inactive)
REMARK    1  A    between atoms: O_2  and  C_3
REMARK    2  A    between atoms: C_6  and  C_7
REMARK    3  A    between atoms: C_8  and  C_9
REMARK    4  A    between atoms: C_11  and  O_12
REMARK    5  A    between atoms: C_14  and  O_15
REMARK    6  A    between atoms: C_17  and  O_18
REMARK                            x       y       z     vdW  Elec       q    Type
REMARK                         _______ _______ _______ _____ _____    ______ ____
ROOT
ATOM      1  C   UNL     1      -6.137   5.774  69.743  0.00  0.00    +0.000 A 
ATOM      2  C   UNL     1      -6.430   7.097  70.049  0.00  0.00    +0.000 A 
ATOM      3  C   UNL     1      -6.469   7.553  71.359  0.00  0.00    +0.000 A 
ATOM      4  C   UNL     1      -6.222   6.614  72.350  0.00  0.00    +0.000 A 
ATOM      5  C   UNL     1      -6.177   5.261  72.071  0.00  0.00    +0.000 A 
ATOM      6  C   UNL     1      -6.112   4.823  70.755  0.00  0.00    +0.000 A 
ENDROOT
BRANCH   1   8
ATOM      7  C   UNL     1      -4.183   5.312  68.489  0.00  0.00    +0.000 C 
ATOM      8  C   UNL     1      -5.507   5.457  68.455  0.00  0.00    +0.000 C 
BRANCH   7  12
ATOM      9  C   UNL     1      -2.507   4.521  64.722  0.00  0.00    +0.000 A 
ATOM     10  C   UNL     1      -3.836   4.219  64.989  0.00  0.00    +0.000 A 
ATOM     11  C   UNL     1      -4.373   4.567  66.200  0.00  0.00    +0.000 A 
ATOM     12  C   UNL     1      -3.528   4.968  67.222  0.00  0.00    +0.000 A 
ATOM     13  C   UNL     1      -2.204   5.303  66.979  0.00  0.00    +0.000 A 
ATOM     14  C   UNL     1      -1.765   5.176  65.672  0.00  0.00    +0.000 A 
BRANCH   9  16
ATOM     15  C   UNL     1      -2.532   2.812  62.940  0.00  0.00    +0.000 C 
ATOM     16  O   UNL     1      -1.951   3.905  63.611  0.00  0.00    +0.000 OA
ENDBRANCH   9  16
ENDBRANCH   7  12
ENDBRANCH   1   8
BRANCH   3  17
ATOM     17  O   UNL     1      -6.938   8.831  71.677  0.00  0.00    +0.000 OA
ATOM     18  C   UNL     1      -6.049   9.930  71.497  0.00  0.00    +0.000 C 
ENDBRANCH   3  17
BRANCH   4  19
ATOM     19  O   UNL     1      -5.899   7.050  73.616  0.00  0.00    +0.000 OA
ATOM     20  C   UNL     1      -4.560   7.291  74.040  0.00  0.00    +0.000 C 
ENDBRANCH   4  19
BRANCH   5  21
ATOM     21  O   UNL     1      -6.529   4.348  73.066  0.00  0.00    +0.000 OA
ATOM     22  C   UNL     1      -5.605   3.483  73.676  0.00  0.00    +0.000 C 
ENDBRANCH   5  21
TORSDOF 6
ENDMDL
MODEL 3
REMARK VINA RESULT:      -0.0     28.260     30.480
REMARK  Name = 
REMARK  6 active torsions:
REMARK  status: ('A' for Active; 'I' for Inactive)
REMARK    1  A    between atoms: O_2  and  C_3
REMARK    2  A    between atoms: C_6  and  C_7
REMARK    3  A    between atoms: C_8  and  C_9
REMARK    4  A    between atoms: C_11  and  O_12
REMARK    5  A    between atoms: C_14  and  O_15
REMARK    6  A    between atoms: C_17  and  O_18
REMARK                            x       y       z     vdW  Elec       q    Type
REMARK                         _______ _______ _______ _____ _____    ______ ____
ROOT
ATOM      1  C   UNL     1      -3.760  21.960  52.097  0.00  0.00    +0.000 A 
ATOM      2  C   UNL     1      -3.571  23.241  51.592  0.00  0.00    +0.000 A 
ATOM      3  C   UNL     1      -4.424  24.287  51.915  0.00  0.00    +0.000 A 
ATOM      4  C   UNL     1      -5.489  23.983  52.751  0.00  0.00    +0.000 A 
ATOM      5  C   UNL     1      -5.823  22.676  53.053  0.00  0.00    +0.000 A 
ATOM      6  C   UNL     1      -4.946  21.645  52.746  0.00  0.00    +0.000 A 
ENDROOT
BRANCH   1   8
ATOM      7  C   UNL     1      -2.090  21.044  53.502  0.00  0.00    +0.000 C 
ATOM      8  C   UNL     1      -2.599  21.078  52.271  0.00  0.00    +0.000 C 
BRANCH   7  12
ATOM      9  C   UNL     1       1.288  18.572  53.826  0.00  0.00    +0.000 A 
ATOM     10  C   UNL     1       0.348  18.368  52.824  0.00  0.00    +0.000 A 
ATOM     11  C   UNL     1      -0.697  19.243  52.696  0.00  0.00    +0.000 A 
ATOM     12  C   UNL     1      -0.945  20.150  53.713  0.00  0.00    +0.000 A 
ATOM     13  C   UNL     1      -0.013  20.395  54.711  0.00  0.00    +0.000 A 
ATOM     14  C   UNL     1       1.157  19.656  54.657  0.00  0.00    +0.000 A 
BRANCH   9  16
ATOM     15  C   UNL     1       1.949  16.202  53.617  0.00  0.00    +0.000 C 
ATOM     16  O   UNL     1       2.150  17.516  54.080  0.00  0.00    +0.000 OA
ENDBRANCH   9  16
ENDBRANCH   7  12
ENDBRANCH   1   8
BRANCH   3  17
ATOM     17  O   UNL     1      -4.344  25.524  51.270  0.00  0.00    +0.000 OA
ATOM     18  C   UNL     1      -3.335  26.435  51.700  0.00  0.00    +0.000 C 
ENDBRANCH   3  17
BRANCH   4  19
ATOM     19  O   UNL     1      -6.153  25.010  53.386  0.00  0.00    +0.000 OA
ATOM     20  C   UNL     1      -5.779  25.505  54.668  0.00  0.00    +0.000 C 
ENDBRANCH   4  19
BRANCH   5  21
ATOM     21  O   UNL     1      -7.152  22.364  53.349  0.00  0.00    +0.000 OA
ATOM     22  C   UNL     1      -7.580  21.972  54.629  0.00  0.00    +0.000 C 
ENDBRANCH   5  21
TORSDOF 6
ENDMDL
MODEL 4
REMARK VINA RESULT:      -0.0     39.016     42.459
REMARK  Name = 
REMARK  6 active torsions:
REMARK  status: ('A' for Active; 'I' for Inactive)
REMARK    1  A    between atoms: O_2  and  C_3
REMARK    2  A    between atoms: C_6  and  C_7
REMARK    3  A    between atoms: C_8  and  C_9
REMARK    4  A    between atoms: C_11  and  O_12
REMARK    5  A    between atoms: C_14  and  O_15
REMARK    6  A    between atoms: C_17  and  O_18
REMARK                            x       y       z     vdW  Elec       q    Type
REMARK                         _______ _______ _______ _____ _____    ______ ____
ROOT
ATOM      1  C   UNL     1      12.507   8.819  42.906  0.00  0.00    +0.000 A 
ATOM      2  C   UNL     1      13.044   9.753  43.783  0.00  0.00    +0.000 A 
ATOM      3  C   UNL     1      14.348  10.211  43.656  0.00  0.00    +0.000 A 
ATOM      4  C   UNL     1      15.095   9.672  42.618  0.00  0.00    +0.000 A 
ATOM      5  C   UNL     1      14.656   8.574  41.903  0.00  0.00    +0.000 A 
ATOM      6  C   UNL     1      13.341   8.145  42.023  0.00  0.00    +0.000 A 
ENDROOT
BRANCH   1   8
ATOM      7  C   UNL     1      10.669   9.463  41.560  0.00  0.00    +0.000 C 
ATOM      8  C   UNL     1      11.060   8.816  42.658  0.00  0.00    +0.000 C 
BRANCH   7  12
ATOM      9  C   UNL     1       6.503   9.467  41.039  0.00  0.00    +0.000 A 
ATOM     10  C   UNL     1       7.128   8.476  41.786  0.00  0.00    +0.000 A 
ATOM     11  C   UNL     1       8.477   8.552  42.006  0.00  0.00    +0.000 A 
ATOM     12  C   UNL     1       9.230   9.454  41.272  0.00  0.00    +0.000 A 
ATOM     13  C   UNL     1       8.634  10.470  40.539  0.00  0.00    +0.000 A 
ATOM     14  C   UNL     1       7.250  10.508  40.549  0.00  0.00    +0.000 A 
BRANCH   9  16
ATOM     15  C   UNL     1       4.625   7.913  40.647  0.00  0.00    +0.000 C 
ATOM     16  O   UNL     1       5.210   9.193  40.619  0.00  0.00    +0.000 OA
ENDBRANCH   9  16
ENDBRANCH   7  12
ENDBRANCH   1   8
BRANCH   3  17
ATOM     17  O   UNL     1      14.945  11.007  44.637  0.00  0.00    +0.000 OA
ATOM     18  C   UNL     1      14.633  12.398  44.646  0.00  0.00    +0.000 C 
ENDBRANCH   3  17
BRANCH   4  19
ATOM     19  O   UNL     1      16.245  10.318  42.218  0.00  0.00    +0.000 OA
ATOM     20  C   UNL     1      16.263  11.321  41.206  0.00  0.00    +0.000 C 
ENDBRANCH   4  19
BRANCH   5  21
ATOM     21  O   UNL     1      15.595   7.711  41.334  0.00  0.00    +0.000 OA
ATOM     22  C   UNL     1      15.784   7.591  39.947  0.00  0.00    +0.000 C 
ENDBRANCH   5  21
TORSDOF 6
ENDMDL
MODEL 5
REMARK VINA RESULT:      -0.0     23.796     27.087
REMARK  Name = 
REMARK  6 active torsions:
REMARK  status: ('A' for Active; 'I' for Inactive)
REMARK    1  A    between atoms: O_2  and  C_3
REMARK    2  A    between atoms: C_6  and  C_7
REMARK    3  A    between atoms: C_8  and  C_9
REMARK    4  A    between atoms: C_11  and  O_12
REMARK    5  A    between atoms: C_14  and  O_15
REMARK    6  A    between atoms: C_17  and  O_18
REMARK                            x       y       z     vdW  Elec       q    Type
REMARK                         _______ _______ _______ _____ _____    ______ ____
ROOT
ATOM      1  C   UNL     1       2.472   8.893  66.046  0.00  0.00    +0.000 A 
ATOM      2  C   UNL     1       1.786   9.509  65.007  0.00  0.00    +0.000 A 
ATOM      3  C   UNL     1       1.101  10.702  65.188  0.00  0.00    +0.000 A 
ATOM      4  C   UNL     1       1.118  11.238  66.467  0.00  0.00    +0.000 A 
ATOM      5  C   UNL     1       1.581  10.515  67.550  0.00  0.00    +0.000 A 
ATOM      6  C   UNL     1       2.287   9.337  67.350  0.00  0.00    +0.000 A 
ENDROOT
BRANCH   1   8
ATOM      7  C   UNL     1       4.819   8.655  65.854  0.00  0.00    +0.000 C 
ATOM      8  C   UNL     1       3.635   8.052  65.741  0.00  0.00    +0.000 C 
BRANCH   7  12
ATOM      9  C   UNL     1       8.045   6.165  64.843  0.00  0.00    +0.000 A 
ATOM     10  C   UNL     1       6.837   5.629  65.270  0.00  0.00    +0.000 A 
ATOM     11  C   UNL     1       5.780   6.466  65.512  0.00  0.00    +0.000 A 
ATOM     12  C   UNL     1       6.002   7.831  65.581  0.00  0.00    +0.000 A 
ATOM     13  C   UNL     1       7.188   8.396  65.136  0.00  0.00    +0.000 A 
ATOM     14  C   UNL     1       8.148   7.521  64.658  0.00  0.00    +0.000 A 
BRANCH   9  16
ATOM     15  C   UNL     1       9.167   4.096  65.589  0.00  0.00    +0.000 C 
ATOM     16  O   UNL     1       9.140   5.316  64.886  0.00  0.00    +0.000 OA
ENDBRANCH   9  16
ENDBRANCH   7  12
ENDBRANCH   1   8
BRANCH   3  17
ATOM     17  O   UNL     1       0.265  11.225  64.197  0.00  0.00    +0.000 OA
ATOM     18  C   UNL     1       0.873  11.931  63.118  0.00  0.00    +0.000 C 
ENDBRANCH   3  17
BRANCH   4  19
ATOM     19  O   UNL     1       0.774  12.561  66.641  0.00  0.00    +0.000 OA
ATOM     20  C   UNL     1       1.720  13.625  66.592  0.00  0.00    +0.000 C 
ENDBRANCH   4  19
BRANCH   5  21
ATOM     21  O   UNL     1       1.062  10.780  68.819  0.00  0.00    +0.000 OA
ATOM     22  C   UNL     1       1.817  11.366  69.850  0.00  0.00    +0.000 C 
ENDBRANCH   5  21
TORSDOF 6
ENDMDL
MODEL 6
REMARK VINA RESULT:      -0.0     14.256     15.835
REMARK  Name = 
REMARK  6 active torsions:
REMARK  status: ('A' for Active; 'I' for Inactive)
REMARK    1  A    between atoms: O_2  and  C_3
REMARK    2  A    between atoms: C_6  and  C_7
REMARK    3  A    between atoms: C_8  and  C_9
REMARK    4  A    between atoms: C_11  and  O_12
REMARK    5  A    between atoms: C_14  and  O_15
REMARK    6  A    between atoms: C_17  and  O_18
REMARK                            x       y       z     vdW  Elec       q    Type
REMARK                         _______ _______ _______ _____ _____    ______ ____
ROOT
ATOM      1  C   UNL     1      21.168  29.484  66.524  0.00  0.00    +0.000 A 
ATOM      2  C   UNL     1      19.847  29.092  66.350  0.00  0.00    +0.000 A 
ATOM      3  C   UNL     1      19.322  28.827  65.093  0.00  0.00    +0.000 A 
ATOM      4  C   UNL     1      20.180  28.994  64.015  0.00  0.00    +0.000 A 
ATOM      5  C   UNL     1      21.406  29.617  64.155  0.00  0.00    +0.000 A 
ATOM      6  C   UNL     1      21.927  29.851  65.420  0.00  0.00    +0.000 A 
ENDROOT
BRANCH   1   8
ATOM      7  C   UNL     1      22.604  28.063  67.757  0.00  0.00    +0.000 C 
ATOM      8  C   UNL     1      21.853  29.164  67.782  0.00  0.00    +0.000 C 
BRANCH   7  12
ATOM      9  C   UNL     1      24.410  27.210  71.450  0.00  0.00    +0.000 A 
ATOM     10  C   UNL     1      24.027  28.505  71.125  0.00  0.00    +0.000 A 
ATOM     11  C   UNL     1      23.365  28.734  69.949  0.00  0.00    +0.000 A 
ATOM     12  C   UNL     1      23.323  27.733  68.993  0.00  0.00    +0.000 A 
ATOM     13  C   UNL     1      23.673  26.425  69.297  0.00  0.00    +0.000 A 
ATOM     14  C   UNL     1      24.104  26.186  70.590  0.00  0.00    +0.000 A 
BRANCH   9  16
ATOM     15  C   UNL     1      26.051  28.151  73.037  0.00  0.00    +0.000 C 
ATOM     16  O   UNL     1      25.308  27.083  72.499  0.00  0.00    +0.000 OA
ENDBRANCH   9  16
ENDBRANCH   7  12
ENDBRANCH   1   8
BRANCH   3  17
ATOM     17  O   UNL     1      17.955  28.609  64.900  0.00  0.00    +0.000 OA
ATOM     18  C   UNL     1      17.436  27.317  65.206  0.00  0.00    +0.000 C 
ENDBRANCH   3  17
BRANCH   4  19
ATOM     19  O   UNL     1      19.850  28.424  62.805  0.00  0.00    +0.000 OA
ATOM     20  C   UNL     1      20.247  27.108  62.429  0.00  0.00    +0.000 C 
ENDBRANCH   4  19
BRANCH   5  21
ATOM     21  O   UNL     1      21.952  30.299  63.065  0.00  0.00    +0.000 OA
ATOM     22  C   UNL     1      23.101  29.861  62.385  0.00  0.00    +0.000 C 
ENDBRANCH   5  21
TORSDOF 6
ENDMDL
MODEL 7
REMARK VINA RESULT:      -0.0      7.574      9.117
REMARK  Name = 
REMARK  6 active torsions:
REMARK  status: ('A' for Active; 'I' for Inactive)
REMARK    1  A    between atoms: O_2  and  C_3
REMARK    2  A    between atoms: C_6  and  C_7
REMARK    3  A    between atoms: C_8  and  C_9
REMARK    4  A    between atoms: C_11  and  O_12
REMARK    5  A    between atoms: C_14  and  O_15
REMARK    6  A    between atoms: C_17  and  O_18
REMARK                            x       y       z     vdW  Elec       q    Type
REMARK                         _______ _______ _______ _____ _____    ______ ____
ROOT
ATOM      1  C   UNL     1       6.677  27.659  79.453  0.00  0.00    +0.000 A 
ATOM      2  C   UNL     1       7.690  27.726  80.401  0.00  0.00    +0.000 A 
ATOM      3  C   UNL     1       7.438  27.559  81.755  0.00  0.00    +0.000 A 
ATOM      4  C   UNL     1       6.116  27.340  82.117  0.00  0.00    +0.000 A 
ATOM      5  C   UNL     1       5.080  27.518  81.218  0.00  0.00    +0.000 A 
ATOM      6  C   UNL     1       5.350  27.659  79.864  0.00  0.00    +0.000 A 
ENDROOT
BRANCH   1   8
ATOM      7  C   UNL     1       6.771  25.935  77.834  0.00  0.00    +0.000 C 
ATOM      8  C   UNL     1       6.998  27.224  78.088  0.00  0.00    +0.000 C 
BRANCH   7  12
ATOM      9  C   UNL     1       7.838  24.808  73.932  0.00  0.00    +0.000 A 
ATOM     10  C   UNL     1       7.526  26.128  74.234  0.00  0.00    +0.000 A 
ATOM     11  C   UNL     1       7.264  26.476  75.532  0.00  0.00    +0.000 A 
ATOM     12  C   UNL     1       7.057  25.477  76.469  0.00  0.00    +0.000 A 
ATOM     13  C   UNL     1       7.385  24.155  76.205  0.00  0.00    +0.000 A 
ATOM     14  C   UNL     1       7.891  23.885  74.945  0.00  0.00    +0.000 A 
BRANCH   9  16
ATOM     15  C   UNL     1       7.236  25.259  71.581  0.00  0.00    +0.000 C 
ATOM     16  O   UNL     1       7.817  24.467  72.589  0.00  0.00    +0.000 OA
ENDBRANCH   9  16
ENDBRANCH   7  12
ENDBRANCH   1   8
BRANCH   3  17
ATOM     17  O   UNL     1       8.418  27.805  82.720  0.00  0.00    +0.000 OA
ATOM     18  C   UNL     1       9.397  26.793  82.948  0.00  0.00    +0.000 C 
ENDBRANCH   3  17
BRANCH   4  19
ATOM     19  O   UNL     1       5.841  26.824  83.364  0.00  0.00    +0.000 OA
ATOM     20  C   UNL     1       5.747  25.427  83.626  0.00  0.00    +0.000 C 
ENDBRANCH   4  19
BRANCH   5  21
ATOM     21  O   UNL     1       3.820  27.887  81.695  0.00  0.00    +0.000 OA
ATOM     22  C   UNL     1       2.705  27.033  81.652  0.00  0.00    +0.000 C 
ENDBRANCH   5  21
TORSDOF 6
ENDMDL
MODEL 8
REMARK VINA RESULT:      -0.0     13.588     16.937
REMARK  Name = 
REMARK  6 active torsions:
REMARK  status: ('A' for Active; 'I' for Inactive)
REMARK    1  A    between atoms: O_2  and  C_3
REMARK    2  A    between atoms: C_6  and  C_7
REMARK    3  A    between atoms: C_8  and  C_9
REMARK    4  A    between atoms: C_11  and  O_12
REMARK    5  A    between atoms: C_14  and  O_15
REMARK    6  A    between atoms: C_17  and  O_18
REMARK                            x       y       z     vdW  Elec       q    Type
REMARK                         _______ _______ _______ _____ _____    ______ ____
ROOT
ATOM      1  C   UNL     1       5.002  31.727  63.666  0.00  0.00    +0.000 A 
ATOM      2  C   UNL     1       4.930  33.083  63.960  0.00  0.00    +0.000 A 
ATOM      3  C   UNL     1       4.587  34.022  62.997  0.00  0.00    +0.000 A 
ATOM      4  C   UNL     1       4.339  33.538  61.720  0.00  0.00    +0.000 A 
ATOM      5  C   UNL     1       4.648  32.239  61.365  0.00  0.00    +0.000 A 
ATOM      6  C   UNL     1       4.965  31.306  62.343  0.00  0.00    +0.000 A 
ENDROOT
BRANCH   1   8
ATOM      7  C   UNL     1       3.510  30.258  64.770  0.00  0.00    +0.000 C 
ATOM      8  C   UNL     1       4.749  30.747  64.730  0.00  0.00    +0.000 C 
BRANCH   7  12
ATOM      9  C   UNL     1       2.899  27.558  67.927  0.00  0.00    +0.000 A 
ATOM     10  C   UNL     1       4.171  27.785  67.418  0.00  0.00    +0.000 A 
ATOM     11  C   UNL     1       4.346  28.733  66.446  0.00  0.00    +0.000 A 
ATOM     12  C   UNL     1       3.234  29.256  65.807  0.00  0.00    +0.000 A 
ATOM     13  C   UNL     1       1.954  29.069  66.307  0.00  0.00    +0.000 A 
ATOM     14  C   UNL     1       1.846  28.300  67.454  0.00  0.00    +0.000 A 
BRANCH   9  16
ATOM     15  C   UNL     1       3.673  25.358  68.737  0.00  0.00    +0.000 C 
ATOM     16  O   UNL     1       2.741  26.412  68.692  0.00  0.00    +0.000 OA
ENDBRANCH   9  16
ENDBRANCH   7  12
ENDBRANCH   1   8
BRANCH   3  17
ATOM     17  O   UNL     1       4.689  35.394  63.242  0.00  0.00    +0.000 OA
ATOM     18  C   UNL     1       3.644  36.018  63.984  0.00  0.00    +0.000 C 
ENDBRANCH   3  17
BRANCH   4  19
ATOM     19  O   UNL     1       3.665  34.337  60.823  0.00  0.00    +0.000 OA
ATOM     20  C   UNL     1       2.246  34.333  60.689  0.00  0.00    +0.000 C 
ENDBRANCH   4  19
BRANCH   5  21
ATOM     21  O   UNL     1       4.966  31.953  60.035  0.00  0.00    +0.000 OA
ATOM     22  C   UNL     1       4.140  31.184  59.198  0.00  0.00    +0.000 C 
ENDBRANCH   5  21
TORSDOF 6
ENDMDL
MODEL 9
REMARK VINA RESULT:      -0.0     37.850     39.907
REMARK  Name = 
REMARK  6 active torsions:
REMARK  status: ('A' for Active; 'I' for Inactive)
REMARK    1  A    between atoms: O_2  and  C_3
REMARK    2  A    between atoms: C_6  and  C_7
REMARK    3  A    between atoms: C_8  and  C_9
REMARK    4  A    between atoms: C_11  and  O_12
REMARK    5  A    between atoms: C_14  and  O_15
REMARK    6  A    between atoms: C_17  and  O_18
REMARK                            x       y       z     vdW  Elec       q    Type
REMARK                         _______ _______ _______ _____ _____    ______ ____
ROOT
ATOM      1  C   UNL     1     -15.482   6.750  59.606  0.00  0.00    +0.000 A 
ATOM      2  C   UNL     1     -16.443   6.197  60.442  0.00  0.00    +0.000 A 
ATOM      3  C   UNL     1     -16.123   5.234  61.388  0.00  0.00    +0.000 A 
ATOM      4  C   UNL     1     -14.795   4.835  61.441  0.00  0.00    +0.000 A 
ATOM      5  C   UNL     1     -13.891   5.193  60.459  0.00  0.00    +0.000 A 
ATOM      6  C   UNL     1     -14.219   6.177  59.536  0.00  0.00    +0.000 A 
ENDROOT
BRANCH   1   8
ATOM      7  C   UNL     1     -15.044   9.070  59.781  0.00  0.00    +0.000 C 
ATOM      8  C   UNL     1     -15.672   8.114  59.096  0.00  0.00    +0.000 C 
BRANCH   7  12
ATOM      9  C   UNL     1     -15.767  12.925  58.282  0.00  0.00    +0.000 A 
ATOM     10  C   UNL     1     -15.894  11.807  57.467  0.00  0.00    +0.000 A 
ATOM     11  C   UNL     1     -15.733  10.559  58.009  0.00  0.00    +0.000 A 
ATOM     12  C   UNL     1     -15.193  10.441  59.280  0.00  0.00    +0.000 A 
ATOM     13  C   UNL     1     -15.080  11.535  60.125  0.00  0.00    +0.000 A 
ATOM     14  C   UNL     1     -15.497  12.754  59.616  0.00  0.00    +0.000 A 
BRANCH   9  16
ATOM     15  C   UNL     1     -15.391  14.290  56.259  0.00  0.00    +0.000 C 
ATOM     16  O   UNL     1     -15.663  14.146  57.633  0.00  0.00    +0.000 OA
ENDBRANCH   9  16
ENDBRANCH   7  12
ENDBRANCH   1   8
BRANCH   3  17
ATOM     17  O   UNL     1     -17.111   4.548  62.101  0.00  0.00    +0.000 OA
ATOM     18  C   UNL     1     -17.705   5.208  63.216  0.00  0.00    +0.000 C 
ENDBRANCH   3  17
BRANCH   4  19
ATOM     19  O   UNL     1     -14.343   4.167  62.558  0.00  0.00    +0.000 OA
ATOM     20  C   UNL     1     -13.795   4.829  63.695  0.00  0.00    +0.000 C 
ENDBRANCH   4  19
BRANCH   5  21
ATOM     21  O   UNL     1     -12.809   4.352  60.189  0.00  0.00    +0.000 OA
ATOM     22  C   UNL     1     -11.478   4.698  60.478  0.00  0.00    +0.000 C 
ENDBRANCH   5  21
TORSDOF 6
ENDMDL
MODEL 10
REMARK VINA RESULT:      -0.0     28.141     31.026
REMARK  Name = 
REMARK  6 active torsions:
REMARK  status: ('A' for Active; 'I' for Inactive)
REMARK    1  A    between atoms: O_2  and  C_3
REMARK    2  A    between atoms: C_6  and  C_7
REMARK    3  A    between atoms: C_8  and  C_9
REMARK    4  A    between atoms: C_11  and  O_12
REMARK    5  A    between atoms: C_14  and  O_15
REMARK    6  A    between atoms: C_17  and  O_18
REMARK                            x       y       z     vdW  Elec       q    Type
REMARK                         _______ _______ _______ _____ _____    ______ ____
ROOT
ATOM      1  C   UNL     1      21.769   2.788  69.295  0.00  0.00    +0.000 A 
ATOM      2  C   UNL     1      22.085   1.735  70.145  0.00  0.00    +0.000 A 
ATOM      3  C   UNL     1      22.951   0.721  69.762  0.00  0.00    +0.000 A 
ATOM      4  C   UNL     1      23.470   0.802  68.477  0.00  0.00    +0.000 A 
ATOM      5  C   UNL     1      22.973   1.699  67.550  0.00  0.00    +0.000 A 
ATOM      6  C   UNL     1      22.128   2.722  67.955  0.00  0.00    +0.000 A 
ENDROOT
BRANCH   1   8
ATOM      7  C   UNL     1      22.391   4.980  69.938  0.00  0.00    +0.000 C 
ATOM      8  C   UNL     1      21.402   4.089  69.869  0.00  0.00    +0.000 C 
BRANCH   7  12
ATOM      9  C   UNL     1      21.227   8.608  71.700  0.00  0.00    +0.000 A 
ATOM     10  C   UNL     1      20.293   7.778  71.093  0.00  0.00    +0.000 A 
ATOM     11  C   UNL     1      20.693   6.564  70.603  0.00  0.00    +0.000 A 
ATOM     12  C   UNL     1      22.048   6.299  70.482  0.00  0.00    +0.000 A 
ATOM     13  C   UNL     1      23.001   7.095  71.101  0.00  0.00    +0.000 A 
ATOM     14  C   UNL     1      22.528   8.187  71.808  0.00  0.00    +0.000 A 
BRANCH   9  16
ATOM     15  C   UNL     1      19.699  10.512  71.325  0.00  0.00    +0.000 C 
ATOM     16  O   UNL     1      20.829   9.919  71.920  0.00  0.00    +0.000 OA
ENDBRANCH   9  16
ENDBRANCH   7  12
ENDBRANCH   1   8
BRANCH   3  17
ATOM     17  O   UNL     1      23.128  -0.426  70.540  0.00  0.00    +0.000 OA
ATOM     18  C   UNL     1      23.995  -0.337  71.668  0.00  0.00    +0.000 C 
ENDBRANCH   3  17
BRANCH   4  19
ATOM     19  O   UNL     1      24.581   0.052  68.158  0.00  0.00    +0.000 OA
ATOM     20  C   UNL     1      25.914   0.527  68.318  0.00  0.00    +0.000 C 
ENDBRANCH   4  19
BRANCH   5  21
ATOM     21  O   UNL     1      23.045   1.384  66.191  0.00  0.00    +0.000 OA
ATOM     22  C   UNL     1      23.874   2.071  65.288  0.00  0.00    +0.000 C 
ENDBRANCH   5  21
TORSDOF 6
ENDMDL
