REMARK  Name = 
REMARK  2 active torsions:
REMARK  status: ('A' for Active; 'I' for Inactive)
REMARK    1  A    between atoms: C_5  and  C_6
REMARK    2  A    between atoms: C_7  and  C_8
REMARK                            x       y       z     vdW  Elec       q    Type
REMARK                         _______ _______ _______ _____ _____    ______ ____
ROOT
ATOM      1  C   UNL     1       1.046  -1.417   1.023  0.00  0.00    +0.000 C 
ATOM      2  C   UNL     1      -0.038  -1.567   0.318  0.00  0.00    +0.000 C 
ENDROOT
BRANCH   2   3
ATOM      3  C   UNL     1      -1.332  -0.932   0.605  0.00  0.00    +0.000 A 
ATOM      4  C   UNL     1      -2.474  -1.579   0.146  0.00  0.00    +0.000 A 
ATOM      5  C   UNL     1      -3.526  -0.856  -0.405  0.00  0.00    +0.000 A 
ATOM      6  O   UNL     1      -4.681  -1.471  -0.874  0.00  0.00    +0.000 OA
ATOM      7  C   UNL     1      -3.453   0.521  -0.570  0.00  0.00    +0.000 A 
ATOM      8  O   UNL     1      -3.946   1.079  -1.755  0.00  0.00    +0.000 OA
ATOM      9  C   UNL     1      -2.391   1.184   0.032  0.00  0.00    +0.000 A 
ATOM     10  O   UNL     1      -2.306   2.575  -0.074  0.00  0.00    +0.000 OA
ATOM     11  C   UNL     1      -1.465   0.442   0.753  0.00  0.00    +0.000 A 
ENDBRANCH   2   3
BRANCH   1  16
ATOM     12  O   UNL     1       4.465   2.417   0.556  0.00  0.00    +0.000 OA
ATOM     13  C   UNL     1       4.171   1.081   0.271  0.00  0.00    +0.000 A 
ATOM     14  C   UNL     1       3.274   0.808  -0.753  0.00  0.00    +0.000 A 
ATOM     15  C   UNL     1       2.522  -0.360  -0.705  0.00  0.00    +0.000 A 
ATOM     16  C   UNL     1       2.367  -1.085   0.471  0.00  0.00    +0.000 A 
ATOM     17  C   UNL     1       3.397  -0.909   1.388  0.00  0.00    +0.000 A 
ATOM     18  C   UNL     1       4.370   0.068   1.202  0.00  0.00    +0.000 A 
ENDBRANCH   1  16
TORSDOF 2
