REMARK  Name = 
REMARK  7 active torsions:
REMARK  status: ('A' for Active; 'I' for Inactive)
REMARK    1  A    between atoms: O_2  and  C_3
REMARK    2  A    between atoms: C_5  and  C_6
REMARK    3  A    between atoms: C_7  and  O_8
REMARK    4  A    between atoms: C_7  and  C_12
REMARK    5  A    between atoms: O_8  and  C_9
REMARK    6  A    between atoms: C_22  and  O_23
REMARK    7  A    between atoms: C_25  and  O_26
REMARK                            x       y       z     vdW  Elec       q    Type
REMARK                         _______ _______ _______ _____ _____    ______ ____
ROOT
ATOM      1  C   UNL     1       0.067   1.348  -0.229  0.00  0.00    +0.000 C 
ATOM      2  C   UNL     1       0.814   0.579   0.548  0.00  0.00    +0.000 C 
ENDROOT
BRANCH   2   3
ATOM      3  C   UNL     1       2.254   0.708   0.481  0.00  0.00    +0.000 A 
ATOM      4  C   UNL     1       2.959   1.810   0.913  0.00  0.00    +0.000 A 
ATOM      5  C   UNL     1       4.334   1.688   1.080  0.00  0.00    +0.000 A 
ATOM      6  C   UNL     1       5.028   0.592   0.614  0.00  0.00    +0.000 A 
ATOM      7  C   UNL     1       4.329  -0.296  -0.187  0.00  0.00    +0.000 A 
ATOM      8  C   UNL     1       2.966  -0.379   0.021  0.00  0.00    +0.000 A 
ATOM      9  O   UNL     1       5.215  -0.910  -1.075  0.00  0.00    +0.000 OA
ATOM     10  C   UNL     1       6.517  -0.526  -0.663  0.00  0.00    +0.000 C 
ATOM     11  O   UNL     1       6.346   0.173   0.568  0.00  0.00    +0.000 OA
ENDBRANCH   2   3
BRANCH   1  14
ATOM     12  C   UNL     1      -2.915  -0.259  -1.697  0.00  0.00    +0.000 A 
ATOM     13  C   UNL     1      -1.725   0.440  -1.623  0.00  0.00    +0.000 A 
ATOM     14  C   UNL     1      -1.352   1.071  -0.465  0.00  0.00    +0.000 A 
ATOM     15  C   UNL     1      -2.199   0.993   0.609  0.00  0.00    +0.000 A 
ATOM     16  C   UNL     1      -3.280   0.120   0.625  0.00  0.00    +0.000 A 
ATOM     17  C   UNL     1      -3.764  -0.256  -0.612  0.00  0.00    +0.000 A 
BRANCH  12  19
ATOM     18  C   UNL     1      -3.823   0.216  -3.924  0.00  0.00    +0.000 C 
ATOM     19  O   UNL     1      -3.357  -0.670  -2.938  0.00  0.00    +0.000 OA
ENDBRANCH  12  19
BRANCH  16  20
ATOM     20  O   UNL     1      -4.138   0.040   1.717  0.00  0.00    +0.000 OA
ATOM     21  C   UNL     1      -3.726  -0.519   2.948  0.00  0.00    +0.000 C 
ENDBRANCH  16  20
BRANCH  17  22
ATOM     22  O   UNL     1      -5.045  -0.737  -0.777  0.00  0.00    +0.000 OA
ATOM     23  C   UNL     1      -6.195   0.049  -0.477  0.00  0.00    +0.000 C 
ENDBRANCH  17  22
ENDBRANCH   1  14
BRANCH   2  24
ATOM     24  O   UNL     1       0.154  -0.322   1.365  0.00  0.00    +0.000 OA
BRANCH  24  25
ATOM     25  C   UNL     1       0.215  -1.690   1.097  0.00  0.00    +0.000 C 
ATOM     26  C   UNL     1      -0.062  -2.682   2.166  0.00  0.00    +0.000 C 
ATOM     27  O   UNL     1       0.383  -2.088  -0.084  0.00  0.00    +0.000 OA
ENDBRANCH  24  25
ENDBRANCH   2  24
TORSDOF 7
