REMARK  Name = 
REMARK  4 active torsions:
REMARK  status: ('A' for Active; 'I' for Inactive)
REMARK    1  A    between atoms: O_2  and  C_3
REMARK    2  A    between atoms: C_5  and  C_6
REMARK    3  A    between atoms: C_7  and  C_8
REMARK    4  A    between atoms: C_11  and  O_12
REMARK                            x       y       z     vdW  Elec       q    Type
REMARK                         _______ _______ _______ _____ _____    ______ ____
ROOT
ATOM      1  C   UNL     1      -2.938   0.256  -1.105  0.00  0.00    +0.000 A 
ATOM      2  C   UNL     1      -1.899  -0.642  -1.156  0.00  0.00    +0.000 A 
ATOM      3  C   UNL     1      -1.514  -1.399  -0.054  0.00  0.00    +0.000 A 
ATOM      4  C   UNL     1      -2.441  -1.475   0.979  0.00  0.00    +0.000 A 
ATOM      5  C   UNL     1      -3.735  -1.008   0.774  0.00  0.00    +0.000 A 
ATOM      6  C   UNL     1      -3.828   0.108  -0.050  0.00  0.00    +0.000 A 
ATOM      7  O   UNL     1      -5.051   0.734   0.160  0.00  0.00    +0.000 OA
ATOM      8  C   UNL     1      -5.872  -0.148   0.922  0.00  0.00    +0.000 C 
ATOM      9  O   UNL     1      -4.899  -0.992   1.532  0.00  0.00    +0.000 OA
ENDROOT
BRANCH   1  11
ATOM     10  C   UNL     1      -1.998   2.485  -1.187  0.00  0.00    +0.000 C 
ATOM     11  O   UNL     1      -2.901   1.513  -1.716  0.00  0.00    +0.000 OA
ENDBRANCH   1  11
BRANCH   3  12
ATOM     12  C   UNL     1      -0.109  -1.783   0.148  0.00  0.00    +0.000 C 
ATOM     13  C   UNL     1       0.770  -1.023   0.756  0.00  0.00    +0.000 C 
BRANCH  13  14
ATOM     14  C   UNL     1       2.039  -0.592   0.159  0.00  0.00    +0.000 A 
ATOM     15  C   UNL     1       2.072   0.749  -0.212  0.00  0.00    +0.000 A 
ATOM     16  C   UNL     1       3.199   1.316  -0.749  0.00  0.00    +0.000 A 
ATOM     17  C   UNL     1       4.424   0.750  -0.452  0.00  0.00    +0.000 A 
ATOM     18  C   UNL     1       4.418  -0.543   0.057  0.00  0.00    +0.000 A 
ATOM     19  O   UNL     1       5.657  -1.168   0.169  0.00  0.00    +0.000 OA
ATOM     20  C   UNL     1       3.257  -1.127   0.549  0.00  0.00    +0.000 A 
BRANCH  17  21
ATOM     21  O   UNL     1       5.573   1.540  -0.397  0.00  0.00    +0.000 OA
ATOM     22  C   UNL     1       5.776   2.450   0.681  0.00  0.00    +0.000 C 
ENDBRANCH  17  21
ENDBRANCH  13  14
ENDBRANCH   3  12
TORSDOF 4
