REMARK  Name = 
REMARK  5 active torsions:
REMARK  status: ('A' for Active; 'I' for Inactive)
REMARK    1  A    between atoms: O_2  and  C_3
REMARK    2  A    between atoms: C_5  and  C_6
REMARK    3  A    between atoms: C_7  and  C_9
REMARK    4  A    between atoms: C_19  and  O_20
REMARK    5  A    between atoms: C_22  and  O_23
REMARK                            x       y       z     vdW  Elec       q    Type
REMARK                         _______ _______ _______ _____ _____    ______ ____
ROOT
ATOM      1  C   UNL     1      -2.362   1.019  -0.675  0.00  0.00    +0.000 A 
ATOM      2  C   UNL     1      -1.192   0.378  -1.065  0.00  0.00    +0.000 A 
ATOM      3  C   UNL     1      -0.823  -0.844  -0.514  0.00  0.00    +0.000 A 
ATOM      4  C   UNL     1      -1.824  -1.475   0.217  0.00  0.00    +0.000 A 
ATOM      5  C   UNL     1      -3.091  -0.982   0.354  0.00  0.00    +0.000 A 
ATOM      6  C   UNL     1      -3.295   0.357   0.113  0.00  0.00    +0.000 A 
ENDROOT
BRANCH   3   7
ATOM      7  C   UNL     1       0.115  -1.750  -1.190  0.00  0.00    +0.000 C 
ATOM      8  C   UNL     1       1.151  -2.143  -0.446  0.00  0.00    +0.000 C 
ATOM      9  C   UNL     1       1.748  -3.510  -0.579  0.00  0.00    +0.000 C 
BRANCH   8  10
ATOM     10  C   UNL     1       1.956  -1.066   0.088  0.00  0.00    +0.000 A 
ATOM     11  C   UNL     1       1.497  -0.013   0.823  0.00  0.00    +0.000 A 
ATOM     12  C   UNL     1       2.272   1.140   0.851  0.00  0.00    +0.000 A 
ATOM     13  C   UNL     1       3.562   1.169   0.336  0.00  0.00    +0.000 A 
ATOM     14  C   UNL     1       4.154  -0.038   0.074  0.00  0.00    +0.000 A 
ATOM     15  C   UNL     1       3.326  -1.133  -0.137  0.00  0.00    +0.000 A 
ATOM     16  O   UNL     1       5.527   0.058   0.028  0.00  0.00    +0.000 OA
ATOM     17  C   UNL     1       5.823   1.450  -0.025  0.00  0.00    +0.000 C 
ATOM     18  O   UNL     1       4.617   2.081   0.397  0.00  0.00    +0.000 OA
ENDBRANCH   8  10
ENDBRANCH   3   7
BRANCH   1  20
ATOM     19  C   UNL     1      -1.879   3.383  -0.164  0.00  0.00    +0.000 C 
ATOM     20  O   UNL     1      -2.564   2.374  -0.866  0.00  0.00    +0.000 OA
ENDBRANCH   1  20
BRANCH   5  21
ATOM     21  O   UNL     1      -4.177  -1.722   0.809  0.00  0.00    +0.000 OA
ATOM     22  C   UNL     1      -5.354  -1.676   0.005  0.00  0.00    +0.000 C 
ENDBRANCH   5  21
BRANCH   6  23
ATOM     23  O   UNL     1      -4.519   0.981   0.373  0.00  0.00    +0.000 OA
ATOM     24  C   UNL     1      -4.668   1.960   1.390  0.00  0.00    +0.000 C 
ENDBRANCH   6  23
TORSDOF 5
