REMARK  Name = 
REMARK  7 active torsions:
REMARK  status: ('A' for Active; 'I' for Inactive)
REMARK    1  A    between atoms: O_2  and  C_3
REMARK    2  A    between atoms: C_6  and  C_7
REMARK    3  A    between atoms: C_7  and  N_21
REMARK    4  A    between atoms: C_8  and  C_9
REMARK    5  A    between atoms: C_11  and  O_12
REMARK    6  A    between atoms: C_14  and  O_15
REMARK    7  A    between atoms: C_17  and  O_18
REMARK                            x       y       z     vdW  Elec       q    Type
REMARK                         _______ _______ _______ _____ _____    ______ ____
ROOT
ATOM      1  C   UNL     1       0.978  -1.463   0.743  0.00  0.00    +0.000 C 
ATOM      2  C   UNL     1      -0.161  -1.018   1.279  0.00  0.00    +0.000 C 
ENDROOT
BRANCH   1   6
ATOM      3  C   UNL     1       4.406   0.777  -0.251  0.00  0.00    +0.000 A 
ATOM      4  C   UNL     1       3.361   0.717  -1.156  0.00  0.00    +0.000 A 
ATOM      5  C   UNL     1       2.228  -0.040  -0.886  0.00  0.00    +0.000 A 
ATOM      6  C   UNL     1       1.956  -0.414   0.424  0.00  0.00    +0.000 A 
ATOM      7  C   UNL     1       3.026  -0.320   1.306  0.00  0.00    +0.000 A 
ATOM      8  C   UNL     1       4.155   0.407   1.063  0.00  0.00    +0.000 A 
BRANCH   3  10
ATOM      9  C   UNL     1       6.578   0.380  -1.300  0.00  0.00    +0.000 C 
ATOM     10  O   UNL     1       5.677   1.198  -0.589  0.00  0.00    +0.000 OA
ENDBRANCH   3  10
ENDBRANCH   1   6
BRANCH   2  11
ATOM     11  C   UNL     1      -0.862  -0.014   0.468  0.00  0.00    +0.000 A 
ATOM     12  C   UNL     1      -1.411  -0.356  -0.757  0.00  0.00    +0.000 A 
ATOM     13  C   UNL     1      -2.603   0.137  -1.221  0.00  0.00    +0.000 A 
ATOM     14  C   UNL     1      -3.233   1.140  -0.494  0.00  0.00    +0.000 A 
ATOM     15  C   UNL     1      -2.646   1.619   0.672  0.00  0.00    +0.000 A 
ATOM     16  C   UNL     1      -1.544   0.966   1.179  0.00  0.00    +0.000 A 
BRANCH  13  17
ATOM     17  O   UNL     1      -3.365  -0.537  -2.183  0.00  0.00    +0.000 OA
ATOM     18  C   UNL     1      -3.971  -1.746  -1.741  0.00  0.00    +0.000 C 
ENDBRANCH  13  17
BRANCH  14  19
ATOM     19  O   UNL     1      -4.612   1.314  -0.652  0.00  0.00    +0.000 OA
ATOM     20  C   UNL     1      -5.103   2.447  -1.363  0.00  0.00    +0.000 C 
ENDBRANCH  14  19
BRANCH  15  21
ATOM     21  O   UNL     1      -3.421   2.443   1.494  0.00  0.00    +0.000 OA
ATOM     22  C   UNL     1      -4.281   1.845   2.448  0.00  0.00    +0.000 C 
ENDBRANCH  15  21
ENDBRANCH   2  11
BRANCH   1  23
ATOM     23  N   UNL     1       1.444  -2.731   1.220  0.00  0.00    +0.000 N 
ATOM     24  O   UNL     1       2.671  -2.918   1.413  0.00  0.00    +0.000 OA
ATOM     25  O   UNL     1       0.734  -3.832   0.800  0.00  0.00    +0.000 OA
ENDBRANCH   1  23
TORSDOF 7
