REMARK  Name = 
REMARK  6 active torsions:
REMARK  status: ('A' for Active; 'I' for Inactive)
REMARK    1  A    between atoms: O_2  and  C_3
REMARK    2  A    between atoms: C_6  and  C_7
REMARK    3  A    between atoms: C_8  and  C_9
REMARK    4  A    between atoms: C_11  and  O_12
REMARK    5  A    between atoms: C_14  and  O_15
REMARK    6  A    between atoms: C_17  and  O_18
REMARK                            x       y       z     vdW  Elec       q    Type
REMARK                         _______ _______ _______ _____ _____    ______ ____
ROOT
ATOM      1  C   UNL     1      -1.048  -1.992   0.242  0.00  0.00    +0.000 C 
ATOM      2  C   UNL     1      -0.074  -1.367  -0.407  0.00  0.00    +0.000 C 
ATOM      3  C   UNL     1       0.379  -2.197  -1.531  0.00  0.00    +0.000 C 
ATOM      4  O   UNL     1       1.224  -1.870  -2.416  0.00  0.00    +0.000 OA
ATOM      5  C   UNL     1      -0.743  -3.163  -1.749  0.00  0.00    +0.000 C 
ATOM      6  C   UNL     1      -1.204  -3.371  -0.312  0.00  0.00    +0.000 C 
ENDROOT
BRANCH   1  10
ATOM      7  C   UNL     1      -4.105   0.641   1.137  0.00  0.00    +0.000 A 
ATOM      8  C   UNL     1      -3.102   0.514   2.091  0.00  0.00    +0.000 A 
ATOM      9  C   UNL     1      -1.997  -0.245   1.729  0.00  0.00    +0.000 A 
ATOM     10  C   UNL     1      -2.177  -1.251   0.820  0.00  0.00    +0.000 A 
ATOM     11  C   UNL     1      -3.432  -1.421   0.247  0.00  0.00    +0.000 A 
ATOM     12  C   UNL     1      -4.325  -0.357   0.196  0.00  0.00    +0.000 A 
BRANCH   7  14
ATOM     13  C   UNL     1      -6.339   1.479   0.865  0.00  0.00    +0.000 C 
ATOM     14  O   UNL     1      -4.989   1.719   1.247  0.00  0.00    +0.000 OA
ENDBRANCH   7  14
ENDBRANCH   1  10
BRANCH   2  15
ATOM     15  C   UNL     1       0.718  -0.309   0.234  0.00  0.00    +0.000 A 
ATOM     16  C   UNL     1       1.747  -0.592   1.120  0.00  0.00    +0.000 A 
ATOM     17  C   UNL     1       2.955   0.093   1.081  0.00  0.00    +0.000 A 
ATOM     18  C   UNL     1       2.981   1.344   0.477  0.00  0.00    +0.000 A 
ATOM     19  C   UNL     1       1.993   1.643  -0.455  0.00  0.00    +0.000 A 
ATOM     20  C   UNL     1       0.821   0.896  -0.443  0.00  0.00    +0.000 A 
BRANCH  17  21
ATOM     21  O   UNL     1       4.146  -0.471   1.535  0.00  0.00    +0.000 OA
ATOM     22  C   UNL     1       4.979  -1.057   0.538  0.00  0.00    +0.000 C 
ENDBRANCH  17  21
BRANCH  18  23
ATOM     23  O   UNL     1       4.150   2.103   0.567  0.00  0.00    +0.000 OA
ATOM     24  C   UNL     1       4.155   3.511   0.581  0.00  0.00    +0.000 C 
ENDBRANCH  18  23
BRANCH  19  25
ATOM     25  O   UNL     1       2.159   2.739  -1.305  0.00  0.00    +0.000 OA
ATOM     26  C   UNL     1       1.128   2.981  -2.259  0.00  0.00    +0.000 C 
ENDBRANCH  19  25
ENDBRANCH   2  15
TORSDOF 6
