REMARK  Name = 
REMARK  8 active torsions:
REMARK  status: ('A' for Active; 'I' for Inactive)
REMARK    1  A    between atoms: O_2  and  C_3
REMARK    2  A    between atoms: C_5  and  C_6
REMARK    3  A    between atoms: C_7  and  C_8
REMARK    4  A    between atoms: C_10  and  O_11
REMARK    5  A    between atoms: C_13  and  O_14
REMARK    6  A    between atoms: C_16  and  O_17
REMARK    7  A    between atoms: C_21  and  O_22
REMARK    8  A    between atoms: C_24  and  O_25
REMARK                            x       y       z     vdW  Elec       q    Type
REMARK                         _______ _______ _______ _____ _____    ______ ____
ROOT
ATOM      1  C   UNL     1       0.425   1.022   0.093  0.00  0.00    +0.000 C 
ATOM      2  C   UNL     1      -0.380   0.414   0.939  0.00  0.00    +0.000 C 
ENDROOT
BRANCH   1   5
ATOM      3  C   UNL     1       3.483  -1.083  -0.343  0.00  0.00    +0.000 A 
ATOM      4  C   UNL     1       2.143  -0.751  -0.241  0.00  0.00    +0.000 A 
ATOM      5  C   UNL     1       1.764   0.579  -0.239  0.00  0.00    +0.000 A 
ATOM      6  C   UNL     1       2.743   1.511  -0.565  0.00  0.00    +0.000 A 
ATOM      7  C   UNL     1       4.089   1.199  -0.425  0.00  0.00    +0.000 A 
ATOM      8  C   UNL     1       4.478  -0.121  -0.241  0.00  0.00    +0.000 A 
BRANCH   3  10
ATOM      9  C   UNL     1       4.943  -2.699   0.688  0.00  0.00    +0.000 C 
ATOM     10  O   UNL     1       3.831  -2.421  -0.148  0.00  0.00    +0.000 OA
ENDBRANCH   3  10
BRANCH   7  11
ATOM     11  O   UNL     1       5.035   2.193  -0.158  0.00  0.00    +0.000 OA
ATOM     12  C   UNL     1       4.646   3.513   0.212  0.00  0.00    +0.000 C 
ENDBRANCH   7  11
BRANCH   8  13
ATOM     13  O   UNL     1       5.651  -0.420   0.459  0.00  0.00    +0.000 OA
ATOM     14  C   UNL     1       6.499   0.642   0.886  0.00  0.00    +0.000 C 
ENDBRANCH   8  13
ENDBRANCH   1   5
BRANCH   2  15
ATOM     15  C   UNL     1      -1.800   0.203   0.666  0.00  0.00    +0.000 A 
ATOM     16  C   UNL     1      -2.707   1.224   0.520  0.00  0.00    +0.000 A 
ATOM     17  C   UNL     1      -4.067   0.975   0.383  0.00  0.00    +0.000 A 
ATOM     18  C   UNL     1      -4.535  -0.334   0.411  0.00  0.00    +0.000 A 
ATOM     19  C   UNL     1      -3.567  -1.329   0.428  0.00  0.00    +0.000 A 
ATOM     20  C   UNL     1      -2.220  -1.048   0.234  0.00  0.00    +0.000 A 
BRANCH  17  21
ATOM     21  O   UNL     1      -5.013   1.976   0.439  0.00  0.00    +0.000 OA
ATOM     22  C   UNL     1      -5.614   2.560  -0.708  0.00  0.00    +0.000 C 
ENDBRANCH  17  21
BRANCH  18  23
ATOM     23  O   UNL     1      -5.747  -0.673   1.020  0.00  0.00    +0.000 OA
ATOM     24  C   UNL     1      -5.776  -1.477   2.195  0.00  0.00    +0.000 C 
ENDBRANCH  18  23
BRANCH  19  25
ATOM     25  O   UNL     1      -4.025  -2.622   0.195  0.00  0.00    +0.000 OA
ATOM     26  C   UNL     1      -4.280  -3.033  -1.126  0.00  0.00    +0.000 C 
ENDBRANCH  19  25
ENDBRANCH   2  15
TORSDOF 8
