REMARK  Name = 
REMARK  3 active torsions:
REMARK  status: ('A' for Active; 'I' for Inactive)
REMARK    1  A    between atoms: O_2  and  C_3
REMARK    2  A    between atoms: C_6  and  C_7
REMARK    3  A    between atoms: C_8  and  C_9
REMARK                            x       y       z     vdW  Elec       q    Type
REMARK                         _______ _______ _______ _____ _____    ______ ____
ROOT
ATOM      1  C   UNL     1      -0.044   0.131  -0.582  0.00  0.00    +0.000 C 
ATOM      2  C   UNL     1      -0.557  -0.133   0.620  0.00  0.00    +0.000 C 
ENDROOT
BRANCH   2   3
ATOM      3  C   UNL     1      -1.996  -0.307   0.805  0.00  0.00    +0.000 A 
ATOM      4  C   UNL     1      -2.877   0.761   0.887  0.00  0.00    +0.000 A 
ATOM      5  C   UNL     1      -4.056   0.733   0.151  0.00  0.00    +0.000 A 
ATOM      6  O   UNL     1      -4.889   1.833   0.045  0.00  0.00    +0.000 OA
ATOM      7  C   UNL     1      -4.579  -0.499  -0.200  0.00  0.00    +0.000 A 
ATOM      8  C   UNL     1      -3.856  -1.643   0.111  0.00  0.00    +0.000 A 
ATOM      9  O   UNL     1      -4.330  -2.851  -0.412  0.00  0.00    +0.000 OA
ATOM     10  C   UNL     1      -2.594  -1.557   0.687  0.00  0.00    +0.000 A 
ENDBRANCH   2   3
BRANCH   1  14
ATOM     11  C   UNL     1       4.043   0.357  -0.031  0.00  0.00    +0.000 A 
ATOM     12  C   UNL     1       3.542  -0.195  -1.203  0.00  0.00    +0.000 A 
ATOM     13  C   UNL     1       2.231   0.017  -1.615  0.00  0.00    +0.000 A 
ATOM     14  C   UNL     1       1.331   0.617  -0.744  0.00  0.00    +0.000 A 
ATOM     15  C   UNL     1       1.910   1.450   0.207  0.00  0.00    +0.000 A 
ATOM     16  C   UNL     1       3.257   1.353   0.537  0.00  0.00    +0.000 A 
ATOM     17  O   UNL     1       3.775   1.954   1.676  0.00  0.00    +0.000 OA
BRANCH  11  19
ATOM     18  C   UNL     1       4.706  -1.673   1.163  0.00  0.00    +0.000 C 
ATOM     19  O   UNL     1       4.982  -0.347   0.729  0.00  0.00    +0.000 OA
ENDBRANCH  11  19
ENDBRANCH   1  14
TORSDOF 3
