REMARK  Name = 
REMARK  6 active torsions:
REMARK  status: ('A' for Active; 'I' for Inactive)
REMARK    1  A    between atoms: O_2  and  C_3
REMARK    2  A    between atoms: C_6  and  C_7
REMARK    3  A    between atoms: C_8  and  C_9
REMARK    4  A    between atoms: C_11  and  O_12
REMARK    5  A    between atoms: C_14  and  O_15
REMARK    6  A    between atoms: C_17  and  O_18
REMARK                            x       y       z     vdW  Elec       q    Type
REMARK                         _______ _______ _______ _____ _____    ______ ____
ROOT
ATOM      1  C   UNL     1      -1.002  -2.302   0.735  0.00  0.00    +0.000 C 
ATOM      2  C   UNL     1       0.245  -2.175   0.336  0.00  0.00    +0.000 C 
ENDROOT
BRANCH   1   6
ATOM      3  C   UNL     1      -3.607   0.778  -0.437  0.00  0.00    +0.000 A 
ATOM      4  C   UNL     1      -2.303   1.047  -0.075  0.00  0.00    +0.000 A 
ATOM      5  C   UNL     1      -1.613   0.115   0.666  0.00  0.00    +0.000 A 
ATOM      6  C   UNL     1      -1.912  -1.215   0.393  0.00  0.00    +0.000 A 
ATOM      7  C   UNL     1      -3.259  -1.481   0.179  0.00  0.00    +0.000 A 
ATOM      8  O   UNL     1      -3.791  -2.752   0.374  0.00  0.00    +0.000 OA
ATOM      9  C   UNL     1      -4.140  -0.455  -0.138  0.00  0.00    +0.000 A 
ATOM     10  O   UNL     1      -5.410  -0.728  -0.653  0.00  0.00    +0.000 OA
BRANCH   3  12
ATOM     11  C   UNL     1      -3.350   2.258  -2.350  0.00  0.00    +0.000 C 
ATOM     12  O   UNL     1      -4.181   1.640  -1.374  0.00  0.00    +0.000 OA
ENDBRANCH   3  12
ENDBRANCH   1   6
BRANCH   2  13
ATOM     13  C   UNL     1       0.908  -0.869   0.231  0.00  0.00    +0.000 A 
ATOM     14  C   UNL     1       1.608  -0.642  -0.950  0.00  0.00    +0.000 A 
ATOM     15  C   UNL     1       2.716   0.195  -0.999  0.00  0.00    +0.000 A 
ATOM     16  C   UNL     1       3.167   0.817   0.158  0.00  0.00    +0.000 A 
ATOM     17  C   UNL     1       2.390   0.657   1.294  0.00  0.00    +0.000 A 
ATOM     18  C   UNL     1       1.559  -0.449   1.385  0.00  0.00    +0.000 A 
BRANCH  15  19
ATOM     19  O   UNL     1       3.645   0.120  -2.042  0.00  0.00    +0.000 OA
ATOM     20  C   UNL     1       3.452   0.717  -3.297  0.00  0.00    +0.000 C 
ENDBRANCH  15  19
BRANCH  16  21
ATOM     21  O   UNL     1       4.438   1.388   0.248  0.00  0.00    +0.000 OA
ATOM     22  C   UNL     1       5.520   0.469   0.319  0.00  0.00    +0.000 C 
ENDBRANCH  16  21
BRANCH  17  23
ATOM     23  O   UNL     1       2.518   1.585   2.315  0.00  0.00    +0.000 OA
ATOM     24  C   UNL     1       2.401   1.281   3.681  0.00  0.00    +0.000 C 
ENDBRANCH  17  23
ENDBRANCH   2  13
TORSDOF 6
