REMARK  Name = 
REMARK  4 active torsions:
REMARK  status: ('A' for Active; 'I' for Inactive)
REMARK    1  A    between atoms: O_2  and  C_3
REMARK    2  A    between atoms: C_5  and  C_6
REMARK    3  A    between atoms: C_7  and  C_8
REMARK    4  A    between atoms: C_17  and  O_18
REMARK                            x       y       z     vdW  Elec       q    Type
REMARK                         _______ _______ _______ _____ _____    ______ ____
ROOT
ATOM      1  C   UNL     1      -3.179   1.401  -0.263  0.00  0.00    +0.000 A 
ATOM      2  C   UNL     1      -2.048   1.046  -0.958  0.00  0.00    +0.000 A 
ATOM      3  C   UNL     1      -1.685  -0.261  -1.213  0.00  0.00    +0.000 A 
ATOM      4  C   UNL     1      -2.465  -1.252  -0.635  0.00  0.00    +0.000 A 
ATOM      5  C   UNL     1      -3.570  -0.965   0.138  0.00  0.00    +0.000 A 
ATOM      6  C   UNL     1      -3.861   0.373   0.374  0.00  0.00    +0.000 A 
ENDROOT
BRANCH   1   8
ATOM      7  C   UNL     1      -2.568   3.746  -0.215  0.00  0.00    +0.000 C 
ATOM      8  O   UNL     1      -3.137   2.623   0.420  0.00  0.00    +0.000 OA
ENDBRANCH   1   8
BRANCH   3   9
ATOM      9  C   UNL     1      -0.297  -0.644  -1.508  0.00  0.00    +0.000 C 
ATOM     10  C   UNL     1       0.631  -0.024  -0.816  0.00  0.00    +0.000 C 
BRANCH  10  11
ATOM     11  C   UNL     1       1.961  -0.592  -0.561  0.00  0.00    +0.000 A 
ATOM     12  C   UNL     1       2.206  -1.312   0.602  0.00  0.00    +0.000 A 
ATOM     13  C   UNL     1       3.422  -1.238   1.268  0.00  0.00    +0.000 A 
ATOM     14  C   UNL     1       4.390  -0.361   0.852  0.00  0.00    +0.000 A 
ATOM     15  O   UNL     1       5.222   0.288   1.767  0.00  0.00    +0.000 OA
ATOM     16  C   UNL     1       4.258   0.184  -0.417  0.00  0.00    +0.000 A 
ATOM     17  O   UNL     1       5.322   0.869  -0.990  0.00  0.00    +0.000 OA
ATOM     18  C   UNL     1       3.062   0.053  -1.111  0.00  0.00    +0.000 A 
ENDBRANCH  10  11
ENDBRANCH   3   9
BRANCH   5  19
ATOM     19  O   UNL     1      -4.146  -1.908   0.996  0.00  0.00    +0.000 OA
ATOM     20  C   UNL     1      -3.519  -2.027   2.269  0.00  0.00    +0.000 C 
ENDBRANCH   5  19
TORSDOF 4
