REMARK  Name = 
REMARK  5 active torsions:
REMARK  status: ('A' for Active; 'I' for Inactive)
REMARK    1  A    between atoms: C_2  and  C_3
REMARK    2  A    between atoms: C_5  and  O_6
REMARK    3  A    between atoms: O_6  and  C_7
REMARK    4  A    between atoms: C_10  and  C_11
REMARK    5  A    between atoms: C_12  and  C_13
REMARK                            x       y       z     vdW  Elec       q    Type
REMARK                         _______ _______ _______ _____ _____    ______ ____
ROOT
ATOM      1  C   UNL     1      -0.882   0.734  -0.422  0.00  0.00    +0.000 A 
ATOM      2  C   UNL     1      -0.445   0.738   0.897  0.00  0.00    +0.000 A 
ATOM      3  C   UNL     1       0.481  -0.202   1.340  0.00  0.00    +0.000 A 
ATOM      4  C   UNL     1       1.030  -1.142   0.478  0.00  0.00    +0.000 A 
ATOM      5  C   UNL     1       0.882  -0.889  -0.874  0.00  0.00    +0.000 A 
ATOM      6  C   UNL     1       0.050   0.152  -1.276  0.00  0.00    +0.000 A 
ENDROOT
BRANCH   4   7
ATOM      7  C   UNL     1       2.304  -1.746   0.882  0.00  0.00    +0.000 C 
ATOM      8  C   UNL     1       3.232  -1.125   1.569  0.00  0.00    +0.000 C 
BRANCH   8   9
ATOM      9  C   UNL     1       4.601  -0.924   1.074  0.00  0.00    +0.000 A 
ATOM     10  C   UNL     1       5.156  -1.899   0.258  0.00  0.00    +0.000 A 
ATOM     11  C   UNL     1       6.173  -1.613  -0.634  0.00  0.00    +0.000 A 
ATOM     12  O   UNL     1       6.864  -2.627  -1.300  0.00  0.00    +0.000 OA
ATOM     13  C   UNL     1       6.605  -0.314  -0.742  0.00  0.00    +0.000 A 
ATOM     14  C   UNL     1       5.986   0.703  -0.064  0.00  0.00    +0.000 A 
ATOM     15  O   UNL     1       6.451   2.007  -0.010  0.00  0.00    +0.000 OA
ATOM     16  C   UNL     1       4.925   0.383   0.751  0.00  0.00    +0.000 A 
ENDBRANCH   8   9
ENDBRANCH   4   7
BRANCH   1  17
ATOM     17  O   UNL     1      -2.249   0.675  -0.751  0.00  0.00    +0.000 OA
BRANCH  17  20
ATOM     18  C   UNL     1      -4.343  -0.647   0.776  0.00  0.00    +0.000 C 
ATOM     19  O   UNL     1      -3.611   0.581   1.151  0.00  0.00    +0.000 OA
ATOM     20  C   UNL     1      -2.990   1.640   0.283  0.00  0.00    +0.000 C 
ATOM     21  C   UNL     1      -4.399   1.848  -0.767  0.00  0.00    +0.000 C 
ATOM     22  O   UNL     1      -4.355   3.333  -0.562  0.00  0.00    +0.000 OA
ATOM     23  C   UNL     1      -5.448   1.643   0.592  0.00  0.00    +0.000 C 
ATOM     24  O   UNL     1      -6.628   2.175  -0.202  0.00  0.00    +0.000 OA
ATOM     25  C   UNL     1      -5.714   0.073  -0.065  0.00  0.00    +0.000 C 
ATOM     26  O   UNL     1      -6.673  -0.302   1.037  0.00  0.00    +0.000 OA
BRANCH  18  28
ATOM     27  O   UNL     1      -3.423  -2.235  -0.475  0.00  0.00    +0.000 OA
ATOM     28  C   UNL     1      -3.581  -1.020  -0.689  0.00  0.00    +0.000 C 
ENDBRANCH  18  28
ENDBRANCH  17  20
ENDBRANCH   1  17
TORSDOF 5
