REMARK  Name = 
REMARK  3 active torsions:
REMARK  status: ('A' for Active; 'I' for Inactive)
REMARK    1  A    between atoms: O_2  and  C_3
REMARK    2  A    between atoms: C_7  and  C_8
REMARK    3  A    between atoms: C_9  and  C_10
REMARK                            x       y       z     vdW  Elec       q    Type
REMARK                         _______ _______ _______ _____ _____    ______ ____
ROOT
ATOM      1  C   UNL     1      -4.017  -0.246  -0.330  0.00  0.00    +0.000 A 
ATOM      2  C   UNL     1      -3.141  -0.015  -1.381  0.00  0.00    +0.000 A 
ATOM      3  O   UNL     1      -3.618   0.518  -2.581  0.00  0.00    +0.000 OA
ATOM      4  C   UNL     1      -1.774  -0.015  -1.132  0.00  0.00    +0.000 A 
ATOM      5  C   UNL     1      -1.262  -0.101   0.156  0.00  0.00    +0.000 A 
ATOM      6  C   UNL     1      -2.110  -0.662   1.100  0.00  0.00    +0.000 A 
ATOM      7  C   UNL     1      -3.467  -0.786   0.827  0.00  0.00    +0.000 A 
ATOM      8  O   UNL     1      -4.379  -1.052   1.853  0.00  0.00    +0.000 OA
ENDROOT
BRANCH   1  10
ATOM      9  C   UNL     1      -5.239   1.753   0.119  0.00  0.00    +0.000 C 
ATOM     10  O   UNL     1      -5.261   0.393  -0.310  0.00  0.00    +0.000 OA
ENDBRANCH   1  10
BRANCH   5  11
ATOM     11  C   UNL     1       0.009   0.526   0.519  0.00  0.00    +0.000 C 
ATOM     12  C   UNL     1       1.062  -0.134   0.932  0.00  0.00    +0.000 C 
BRANCH  12  13
ATOM     13  C   UNL     1       2.402   0.003   0.380  0.00  0.00    +0.000 A 
ATOM     14  C   UNL     1       3.145   1.159   0.577  0.00  0.00    +0.000 A 
ATOM     15  C   UNL     1       4.529   1.125   0.502  0.00  0.00    +0.000 A 
ATOM     16  O   UNL     1       5.295   2.244   0.784  0.00  0.00    +0.000 OA
ATOM     17  C   UNL     1       5.189  -0.081   0.307  0.00  0.00    +0.000 A 
ATOM     18  C   UNL     1       4.461  -1.169  -0.152  0.00  0.00    +0.000 A 
ATOM     19  O   UNL     1       5.096  -2.411  -0.074  0.00  0.00    +0.000 OA
ATOM     20  C   UNL     1       3.079  -1.048  -0.227  0.00  0.00    +0.000 A 
ENDBRANCH  12  13
ENDBRANCH   5  11
TORSDOF 3
