REMARK  Name = 
REMARK  9 active torsions:
REMARK  status: ('A' for Active; 'I' for Inactive)
REMARK    1  A    between atoms: O_2  and  C_3
REMARK    2  A    between atoms: C_6  and  C_7
REMARK    3  A    between atoms: C_8  and  C_9
REMARK    4  A    between atoms: C_11  and  O_12
REMARK    5  A    between atoms: C_14  and  O_15
REMARK    6  A    between atoms: C_17  and  O_18
REMARK    7  A    between atoms: C_22  and  O_23
REMARK    8  A    between atoms: O_23  and  C_24
REMARK    9  A    between atoms: C_24  and  C_25
REMARK                            x       y       z     vdW  Elec       q    Type
REMARK                         _______ _______ _______ _____ _____    ______ ____
ROOT
ATOM      1  C   UNL     1      -0.079  -1.749  -0.898  0.00  0.00    +0.000 C 
ATOM      2  C   UNL     1      -1.224  -1.246  -1.365  0.00  0.00    +0.000 C 
ENDROOT
BRANCH   1   6
ATOM      3  C   UNL     1       3.490   0.193  -0.581  0.00  0.00    +0.000 A 
ATOM      4  C   UNL     1       2.460   0.830  -1.257  0.00  0.00    +0.000 A 
ATOM      5  C   UNL     1       1.160   0.346  -1.178  0.00  0.00    +0.000 A 
ATOM      6  C   UNL     1       0.824  -0.722  -0.354  0.00  0.00    +0.000 A 
ATOM      7  C   UNL     1       1.795  -1.071   0.576  0.00  0.00    +0.000 A 
ATOM      8  C   UNL     1       3.101  -0.604   0.489  0.00  0.00    +0.000 A 
BRANCH   3  10
ATOM      9  C   UNL     1       4.905  -1.100  -2.093  0.00  0.00    +0.000 C 
ATOM     10  O   UNL     1       4.728  -0.002  -1.204  0.00  0.00    +0.000 OA
ENDBRANCH   3  10
BRANCH   8  11
ATOM     11  O   UNL     1       4.150  -1.211   1.185  0.00  0.00    +0.000 OA
BRANCH  11  12
ATOM     12  C   UNL     1       4.877  -0.577   2.206  0.00  0.00    +0.000 C 
BRANCH  12  13
ATOM     13  C   UNL     1       5.936   0.320   1.709  0.00  0.00    +0.000 C 
ATOM     14  O   UNL     1       7.061  -0.071   1.296  0.00  0.00    +0.000 OA
ATOM     15  O   UNL     1       5.781   1.693   1.860  0.00  0.00    +0.000 OA
ENDBRANCH  12  13
ENDBRANCH  11  12
ENDBRANCH   8  11
ENDBRANCH   1   6
BRANCH   2  16
ATOM     16  C   UNL     1      -2.030  -0.573  -0.335  0.00  0.00    +0.000 A 
ATOM     17  C   UNL     1      -2.227   0.788  -0.531  0.00  0.00    +0.000 A 
ATOM     18  C   UNL     1      -3.300   1.434   0.072  0.00  0.00    +0.000 A 
ATOM     19  C   UNL     1      -4.384   0.682   0.491  0.00  0.00    +0.000 A 
ATOM     20  C   UNL     1      -4.316  -0.704   0.495  0.00  0.00    +0.000 A 
ATOM     21  C   UNL     1      -3.119  -1.272   0.172  0.00  0.00    +0.000 A 
BRANCH  18  22
ATOM     22  O   UNL     1      -3.472   2.795  -0.196  0.00  0.00    +0.000 OA
ATOM     23  C   UNL     1      -2.592   3.784   0.325  0.00  0.00    +0.000 C 
ENDBRANCH  18  22
BRANCH  19  24
ATOM     24  O   UNL     1      -5.532   1.363   0.851  0.00  0.00    +0.000 OA
ATOM     25  C   UNL     1      -6.686   0.687   1.338  0.00  0.00    +0.000 C 
ENDBRANCH  19  24
BRANCH  20  26
ATOM     26  O   UNL     1      -5.546  -1.364   0.410  0.00  0.00    +0.000 OA
ATOM     27  C   UNL     1      -5.761  -2.651   0.925  0.00  0.00    +0.000 C 
ENDBRANCH  20  26
ENDBRANCH   2  16
TORSDOF 9
