REMARK  Name = 
REMARK  4 active torsions:
REMARK  status: ('A' for Active; 'I' for Inactive)
REMARK    1  A    between atoms: O_2  and  C_3
REMARK    2  A    between atoms: C_5  and  C_6
REMARK    3  A    between atoms: C_7  and  C_8
REMARK    4  A    between atoms: C_11  and  O_12
REMARK                            x       y       z     vdW  Elec       q    Type
REMARK                         _______ _______ _______ _____ _____    ______ ____
ROOT
ATOM      1  C   UNL     1      -3.299   0.991  -0.043  0.00  0.00    +0.000 A 
ATOM      2  C   UNL     1      -2.100   0.786   0.597  0.00  0.00    +0.000 A 
ATOM      3  C   UNL     1      -1.416  -0.420   0.554  0.00  0.00    +0.000 A 
ATOM      4  C   UNL     1      -2.039  -1.451  -0.102  0.00  0.00    +0.000 A 
ATOM      5  C   UNL     1      -3.201  -1.299  -0.836  0.00  0.00    +0.000 A 
ATOM      6  C   UNL     1      -3.807  -0.049  -0.804  0.00  0.00    +0.000 A 
ATOM      7  O   UNL     1      -4.751  -0.077  -1.827  0.00  0.00    +0.000 OA
ATOM      8  C   UNL     1      -4.883  -1.417  -2.296  0.00  0.00    +0.000 C 
ATOM      9  O   UNL     1      -4.120  -2.196  -1.384  0.00  0.00    +0.000 OA
ENDROOT
BRANCH   1  11
ATOM     10  C   UNL     1      -5.113   1.545   1.402  0.00  0.00    +0.000 C 
ATOM     11  O   UNL     1      -4.197   1.968   0.394  0.00  0.00    +0.000 OA
ENDBRANCH   1  11
BRANCH   3  12
ATOM     12  C   UNL     1       0.051  -0.436   0.618  0.00  0.00    +0.000 C 
ATOM     13  C   UNL     1       0.780  -0.235  -0.478  0.00  0.00    +0.000 C 
BRANCH  13  14
ATOM     14  C   UNL     1       2.246  -0.199  -0.447  0.00  0.00    +0.000 A 
ATOM     15  C   UNL     1       2.873  -1.246   0.218  0.00  0.00    +0.000 A 
ATOM     16  C   UNL     1       4.085  -1.101   0.856  0.00  0.00    +0.000 A 
ATOM     17  C   UNL     1       4.614   0.163   0.994  0.00  0.00    +0.000 A 
ATOM     18  C   UNL     1       4.064   1.210   0.289  0.00  0.00    +0.000 A 
ATOM     19  N   UNL     1       4.525   2.521   0.634  0.00  0.00    +0.000 NA
ATOM     20  C   UNL     1       2.865   1.026  -0.375  0.00  0.00    +0.000 A 
BRANCH  17  21
ATOM     21  O   UNL     1       5.890   0.295   1.551  0.00  0.00    +0.000 OA
ATOM     22  C   UNL     1       6.933  -0.378   0.866  0.00  0.00    +0.000 C 
ENDBRANCH  17  21
ENDBRANCH  13  14
ENDBRANCH   3  12
TORSDOF 4
