REMARK  Name = 
REMARK  5 active torsions:
REMARK  status: ('A' for Active; 'I' for Inactive)
REMARK    1  A    between atoms: O_2  and  C_3
REMARK    2  A    between atoms: C_5  and  C_6
REMARK    3  A    between atoms: C_7  and  C_8
REMARK    4  A    between atoms: C_11  and  O_12
REMARK    5  A    between atoms: C_17  and  O_18
REMARK                            x       y       z     vdW  Elec       q    Type
REMARK                         _______ _______ _______ _____ _____    ______ ____
ROOT
ATOM      1  C   UNL     1       2.342   1.422   0.535  0.00  0.00    +0.000 A 
ATOM      2  C   UNL     1       1.249   0.798  -0.032  0.00  0.00    +0.000 A 
ATOM      3  C   UNL     1       1.203  -0.591  -0.058  0.00  0.00    +0.000 A 
ATOM      4  C   UNL     1       2.421  -1.236  -0.078  0.00  0.00    +0.000 A 
ATOM      5  C   UNL     1       3.626  -0.582   0.132  0.00  0.00    +0.000 A 
ATOM      6  C   UNL     1       3.562   0.788   0.338  0.00  0.00    +0.000 A 
ATOM      7  O   UNL     1       4.851   1.190   0.612  0.00  0.00    +0.000 OA
ATOM      8  C   UNL     1       5.711   0.257  -0.020  0.00  0.00    +0.000 C 
ATOM      9  O   UNL     1       4.915  -0.901  -0.265  0.00  0.00    +0.000 OA
ENDROOT
BRANCH   1  11
ATOM     10  C   UNL     1       1.987   3.598  -0.404  0.00  0.00    +0.000 C 
ATOM     11  O   UNL     1       2.247   2.803   0.725  0.00  0.00    +0.000 OA
ENDBRANCH   1  11
BRANCH   3  12
ATOM     12  C   UNL     1      -0.001  -1.164  -0.674  0.00  0.00    +0.000 C 
ATOM     13  C   UNL     1      -1.102  -1.425  -0.018  0.00  0.00    +0.000 C 
BRANCH  13  14
ATOM     14  C   UNL     1      -2.444  -1.048  -0.413  0.00  0.00    +0.000 A 
ATOM     15  C   UNL     1      -2.735   0.093  -1.150  0.00  0.00    +0.000 A 
ATOM     16  C   UNL     1      -3.763   0.956  -0.793  0.00  0.00    +0.000 A 
ATOM     17  C   UNL     1      -4.715   0.540   0.123  0.00  0.00    +0.000 A 
ATOM     18  C   UNL     1      -4.660  -0.785   0.525  0.00  0.00    +0.000 A 
ATOM     19  O   UNL     1      -5.795  -1.399   1.061  0.00  0.00    +0.000 OA
ATOM     20  C   UNL     1      -3.476  -1.502   0.399  0.00  0.00    +0.000 A 
BRANCH  17  21
ATOM     21  O   UNL     1      -5.532   1.405   0.823  0.00  0.00    +0.000 OA
ATOM     22  C   UNL     1      -5.085   2.733   1.072  0.00  0.00    +0.000 C 
ENDBRANCH  17  21
ENDBRANCH  13  14
ENDBRANCH   3  12
BRANCH   4  23
ATOM     23  O   UNL     1       2.382  -2.624  -0.049  0.00  0.00    +0.000 OA
ATOM     24  C   UNL     1       2.812  -3.327  -1.205  0.00  0.00    +0.000 C 
ENDBRANCH   4  23
TORSDOF 5
