REMARK  Name = 
REMARK  4 active torsions:
REMARK  status: ('A' for Active; 'I' for Inactive)
REMARK    1  A    between atoms: S_2  and  O_5
REMARK    2  A    between atoms: O_5  and  C_6
REMARK    3  A    between atoms: C_11  and  C_12
REMARK    4  A    between atoms: C_13  and  C_14
REMARK                            x       y       z     vdW  Elec       q    Type
REMARK                         _______ _______ _______ _____ _____    ______ ____
ROOT
ATOM      1  C   UNL     1      -2.901   0.419  -0.512  0.00  0.00    +0.000 A 
ATOM      2  C   UNL     1      -3.182   1.702  -0.070  0.00  0.00    +0.000 A 
ATOM      3  C   UNL     1      -2.116   2.558   0.174  0.00  0.00    +0.000 A 
ATOM      4  O   UNL     1      -2.388   3.848   0.575  0.00  0.00    +0.000 OA
ATOM      5  C   UNL     1      -0.825   2.046   0.145  0.00  0.00    +0.000 A 
ATOM      6  C   UNL     1      -0.714   0.678   0.359  0.00  0.00    +0.000 A 
ATOM      7  C   UNL     1      -1.724  -0.168  -0.078  0.00  0.00    +0.000 A 
ENDROOT
BRANCH   6   8
ATOM      8  C   UNL     1       0.553   0.059   0.771  0.00  0.00    +0.000 C 
ATOM      9  C   UNL     1       1.608   0.321   0.038  0.00  0.00    +0.000 C 
BRANCH   9  10
ATOM     10  C   UNL     1       2.864  -0.438   0.120  0.00  0.00    +0.000 A 
ATOM     11  C   UNL     1       3.720  -0.330   1.209  0.00  0.00    +0.000 A 
ATOM     12  C   UNL     1       5.090  -0.195   1.017  0.00  0.00    +0.000 A 
ATOM     13  C   UNL     1       5.657  -0.209  -0.251  0.00  0.00    +0.000 A 
ATOM     14  O   UNL     1       6.680   0.702  -0.541  0.00  0.00    +0.000 OA
ATOM     15  C   UNL     1       4.845  -0.711  -1.261  0.00  0.00    +0.000 A 
ATOM     16  C   UNL     1       3.473  -0.816  -1.071  0.00  0.00    +0.000 A 
ENDBRANCH   9  10
ENDBRANCH   6   8
BRANCH   1  17
ATOM     17  O   UNL     1      -3.964  -0.437  -0.781  0.00  0.00    +0.000 OA
BRANCH  17  19
ATOM     18  O   UNL     1      -4.420  -1.638   1.477  0.00  0.00    +0.000 OA
ATOM     19  S   UNL     1      -4.100  -1.919   0.027  0.00  0.00    +0.000 S 
ATOM     20  O   UNL     1      -2.807  -2.680  -0.055  0.00  0.00    +0.000 OA
ATOM     21  O   UNL     1      -5.349  -2.794  -0.662  0.00  0.00    +0.000 OA
ENDBRANCH  17  19
ENDBRANCH   1  17
TORSDOF 4
