REMARK  Name = 
REMARK  6 active torsions:
REMARK  status: ('A' for Active; 'I' for Inactive)
REMARK    1  A    between atoms: O_2  and  C_3
REMARK    2  A    between atoms: C_6  and  C_7
REMARK    3  A    between atoms: C_8  and  C_9
REMARK    4  A    between atoms: C_11  and  O_12
REMARK    5  A    between atoms: C_14  and  O_15
REMARK    6  A    between atoms: C_17  and  O_18
REMARK                            x       y       z     vdW  Elec       q    Type
REMARK                         _______ _______ _______ _____ _____    ______ ____
ROOT
ATOM      1  C   UNL     1       1.237  -0.331  -0.652  0.00  0.00    +0.000 A 
ATOM      2  C   UNL     1       2.102  -1.336  -0.237  0.00  0.00    +0.000 A 
ATOM      3  C   UNL     1       3.300  -1.051   0.388  0.00  0.00    +0.000 A 
ATOM      4  C   UNL     1       3.694   0.249   0.528  0.00  0.00    +0.000 A 
ATOM      5  C   UNL     1       2.850   1.281   0.156  0.00  0.00    +0.000 A 
ATOM      6  C   UNL     1       1.690   0.975  -0.534  0.00  0.00    +0.000 A 
ENDROOT
BRANCH   1   8
ATOM      7  C   UNL     1      -0.779  -0.817   0.552  0.00  0.00    +0.000 C 
ATOM      8  C   UNL     1      -0.211  -0.575  -0.615  0.00  0.00    +0.000 C 
BRANCH   7  12
ATOM      9  C   UNL     1      -4.737   0.114  -0.213  0.00  0.00    +0.000 A 
ATOM     10  C   UNL     1      -3.958   1.043   0.440  0.00  0.00    +0.000 A 
ATOM     11  C   UNL     1      -2.601   0.776   0.568  0.00  0.00    +0.000 A 
ATOM     12  C   UNL     1      -2.216  -0.553   0.691  0.00  0.00    +0.000 A 
ATOM     13  C   UNL     1      -3.052  -1.509   0.134  0.00  0.00    +0.000 A 
ATOM     14  C   UNL     1      -4.287  -1.186  -0.409  0.00  0.00    +0.000 A 
ATOM     15  N   UNL     1      -5.228  -2.256  -0.548  0.00  0.00    +0.000 NA
BRANCH   9  17
ATOM     16  C   UNL     1      -6.349   1.818  -0.980  0.00  0.00    +0.000 C 
ATOM     17  O   UNL     1      -5.870   0.479  -0.941  0.00  0.00    +0.000 OA
ENDBRANCH   9  17
ENDBRANCH   7  12
ENDBRANCH   1   8
BRANCH   3  18
ATOM     18  O   UNL     1       4.093  -2.139   0.743  0.00  0.00    +0.000 OA
ATOM     19  C   UNL     1       3.543  -3.303   1.329  0.00  0.00    +0.000 C 
ENDBRANCH   3  18
BRANCH   4  20
ATOM     20  O   UNL     1       5.044   0.473   0.792  0.00  0.00    +0.000 OA
ATOM     21  C   UNL     1       5.644   1.687   0.414  0.00  0.00    +0.000 C 
ENDBRANCH   4  20
BRANCH   5  22
ATOM     22  O   UNL     1       3.386   2.551   0.138  0.00  0.00    +0.000 OA
ATOM     23  C   UNL     1       2.705   3.610   0.798  0.00  0.00    +0.000 C 
ENDBRANCH   5  22
TORSDOF 6
