REMARK  Name = 
REMARK  5 active torsions:
REMARK  status: ('A' for Active; 'I' for Inactive)
REMARK    1  A    between atoms: C_2  and  C_3
REMARK    2  A    between atoms: C_5  and  O_6
REMARK    3  A    between atoms: O_6  and  C_7
REMARK    4  A    between atoms: C_10  and  C_11
REMARK    5  A    between atoms: C_12  and  C_13
REMARK                            x       y       z     vdW  Elec       q    Type
REMARK                         _______ _______ _______ _____ _____    ______ ____
ROOT
ATOM      1  C   UNL     1       1.759   1.746   0.792  0.00  0.00    +0.000 A 
ATOM      2  C   UNL     1       1.327   2.641  -0.177  0.00  0.00    +0.000 A 
ATOM      3  C   UNL     1      -0.027   2.875  -0.395  0.00  0.00    +0.000 A 
ATOM      4  C   UNL     1      -0.917   2.100   0.309  0.00  0.00    +0.000 A 
ATOM      5  C   UNL     1      -0.520   1.395   1.435  0.00  0.00    +0.000 A 
ATOM      6  C   UNL     1       0.806   1.505   1.779  0.00  0.00    +0.000 A 
ENDROOT
BRANCH   4   7
ATOM      7  C   UNL     1      -2.276   1.817  -0.167  0.00  0.00    +0.000 C 
ATOM      8  C   UNL     1      -2.557   0.619  -0.676  0.00  0.00    +0.000 C 
BRANCH   8   9
ATOM      9  C   UNL     1      -3.918   0.130  -0.610  0.00  0.00    +0.000 A 
ATOM     10  C   UNL     1      -4.967   1.021  -0.466  0.00  0.00    +0.000 A 
ATOM     11  C   UNL     1      -6.177   0.574   0.043  0.00  0.00    +0.000 A 
ATOM     12  O   UNL     1      -7.125   1.470   0.476  0.00  0.00    +0.000 OA
ATOM     13  C   UNL     1      -6.377  -0.774   0.114  0.00  0.00    +0.000 A 
ATOM     14  C   UNL     1      -5.386  -1.675  -0.151  0.00  0.00    +0.000 A 
ATOM     15  O   UNL     1      -5.656  -2.997  -0.406  0.00  0.00    +0.000 OA
ATOM     16  C   UNL     1      -4.103  -1.196  -0.343  0.00  0.00    +0.000 A 
ENDBRANCH   8   9
ENDBRANCH   4   7
BRANCH   1  17
ATOM     17  O   UNL     1       3.041   1.600   1.105  0.00  0.00    +0.000 OA
BRANCH  17  20
ATOM     18  C   UNL     1       5.129  -0.542  -0.583  0.00  0.00    +0.000 C 
ATOM     19  O   UNL     1       3.871   0.345  -0.562  0.00  0.00    +0.000 OA
ATOM     20  C   UNL     1       3.741   0.194   0.987  0.00  0.00    +0.000 C 
ATOM     21  C   UNL     1       2.215  -0.678   0.865  0.00  0.00    +0.000 C 
ATOM     22  O   UNL     1       2.474  -1.472   2.116  0.00  0.00    +0.000 OA
ATOM     23  C   UNL     1       2.869  -1.956  -0.117  0.00  0.00    +0.000 C 
ATOM     24  O   UNL     1       2.865  -1.088  -1.351  0.00  0.00    +0.000 OA
ATOM     25  C   UNL     1       4.474  -1.744   0.506  0.00  0.00    +0.000 C 
ATOM     26  O   UNL     1       4.973  -2.936  -0.292  0.00  0.00    +0.000 OA
BRANCH  18  28
ATOM     27  O   UNL     1       5.630  -1.584  -2.311  0.00  0.00    +0.000 OA
ATOM     28  C   UNL     1       4.832  -1.392  -1.993  0.00  0.00    +0.000 C 
ENDBRANCH  18  28
ENDBRANCH  17  20
ENDBRANCH   1  17
TORSDOF 5
