REMARK  Name = 
REMARK  2 active torsions:
REMARK  status: ('A' for Active; 'I' for Inactive)
REMARK    1  A    between atoms: C_4  and  C_5
REMARK    2  A    between atoms: C_6  and  C_7
REMARK                            x       y       z     vdW  Elec       q    Type
REMARK                         _______ _______ _______ _____ _____    ______ ____
ROOT
ATOM      1  C   UNL     1       0.576  -1.198  -0.740  0.00  0.00    +0.000 C 
ATOM      2  C   UNL     1      -0.295  -1.051   0.230  0.00  0.00    +0.000 C 
ENDROOT
BRANCH   1   6
ATOM      3  O   UNL     1       3.224   2.763  -0.059  0.00  0.00    +0.000 OA
ATOM      4  C   UNL     1       3.067   1.389  -0.065  0.00  0.00    +0.000 A 
ATOM      5  C   UNL     1       2.108   0.745  -0.837  0.00  0.00    +0.000 A 
ATOM      6  C   UNL     1       1.930  -0.627  -0.710  0.00  0.00    +0.000 A 
ATOM      7  C   UNL     1       2.879  -1.314   0.007  0.00  0.00    +0.000 A 
ATOM      8  C   UNL     1       4.074  -0.737   0.395  0.00  0.00    +0.000 A 
ATOM      9  O   UNL     1       5.243  -1.496   0.433  0.00  0.00    +0.000 OA
ATOM     10  C   UNL     1       4.081   0.646   0.528  0.00  0.00    +0.000 A 
ATOM     11  O   UNL     1       5.303   1.247   0.786  0.00  0.00    +0.000 OA
ENDBRANCH   1   6
BRANCH   2  12
ATOM     12  C   UNL     1      -1.716  -0.777  -0.019  0.00  0.00    +0.000 A 
ATOM     13  C   UNL     1      -2.623  -0.762   0.999  0.00  0.00    +0.000 A 
ATOM     14  C   UNL     1      -3.901  -0.236   0.861  0.00  0.00    +0.000 A 
ATOM     15  O   UNL     1      -4.897  -0.461   1.815  0.00  0.00    +0.000 OA
ATOM     16  C   UNL     1      -4.283   0.275  -0.362  0.00  0.00    +0.000 A 
ATOM     17  O   UNL     1      -5.264   1.270  -0.365  0.00  0.00    +0.000 OA
ATOM     18  C   UNL     1      -3.456   0.134  -1.442  0.00  0.00    +0.000 A 
ATOM     19  O   UNL     1      -3.898   0.466  -2.707  0.00  0.00    +0.000 OA
ATOM     20  C   UNL     1      -2.155  -0.277  -1.238  0.00  0.00    +0.000 A 
ENDBRANCH   2  12
TORSDOF 2
