REMARK  Name = 
REMARK  4 active torsions:
REMARK  status: ('A' for Active; 'I' for Inactive)
REMARK    1  A    between atoms: O_2  and  C_3
REMARK    2  A    between atoms: C_5  and  C_6
REMARK    3  A    between atoms: C_7  and  C_8
REMARK    4  A    between atoms: C_11  and  O_12
REMARK                            x       y       z     vdW  Elec       q    Type
REMARK                         _______ _______ _______ _____ _____    ______ ____
ROOT
ATOM      1  C   UNL     1      -2.719   1.251   0.370  0.00  0.00    +0.000 A 
ATOM      2  C   UNL     1      -1.589   0.714   0.922  0.00  0.00    +0.000 A 
ATOM      3  C   UNL     1      -0.961  -0.424   0.432  0.00  0.00    +0.000 A 
ATOM      4  C   UNL     1      -1.465  -0.900  -0.771  0.00  0.00    +0.000 A 
ATOM      5  C   UNL     1      -2.668  -0.462  -1.298  0.00  0.00    +0.000 A 
ATOM      6  C   UNL     1      -3.322   0.610  -0.704  0.00  0.00    +0.000 A 
ATOM      7  O   UNL     1      -4.440   0.959  -1.465  0.00  0.00    +0.000 OA
ATOM      8  C   UNL     1      -4.436   0.097  -2.578  0.00  0.00    +0.000 C 
ATOM      9  O   UNL     1      -3.586  -0.984  -2.215  0.00  0.00    +0.000 OA
ENDROOT
BRANCH   1  11
ATOM     10  C   UNL     1      -4.876   1.947   1.334  0.00  0.00    +0.000 C 
ATOM     11  O   UNL     1      -3.507   2.201   1.029  0.00  0.00    +0.000 OA
ENDBRANCH   1  11
BRANCH   3  12
ATOM     12  C   UNL     1      -0.367  -1.362   1.397  0.00  0.00    +0.000 C 
ATOM     13  C   UNL     1       0.631  -2.084   0.886  0.00  0.00    +0.000 C 
BRANCH  13  14
ATOM     14  C   UNL     1       1.750  -1.297   0.358  0.00  0.00    +0.000 A 
ATOM     15  C   UNL     1       1.677   0.042   0.080  0.00  0.00    +0.000 A 
ATOM     16  C   UNL     1       2.831   0.732  -0.267  0.00  0.00    +0.000 A 
ATOM     17  C   UNL     1       4.081   0.209   0.018  0.00  0.00    +0.000 A 
ATOM     18  C   UNL     1       4.165  -1.071   0.520  0.00  0.00    +0.000 A 
ATOM     19  O   UNL     1       5.377  -1.642   0.922  0.00  0.00    +0.000 OA
ATOM     20  C   UNL     1       3.007  -1.774   0.718  0.00  0.00    +0.000 A 
BRANCH  17  21
ATOM     21  O   UNL     1       5.236   0.969   0.026  0.00  0.00    +0.000 OA
ATOM     22  C   UNL     1       5.182   2.270   0.585  0.00  0.00    +0.000 C 
ENDBRANCH  17  21
ENDBRANCH  13  14
ENDBRANCH   3  12
TORSDOF 4
