REMARK  Name = 
REMARK  5 active torsions:
REMARK  status: ('A' for Active; 'I' for Inactive)
REMARK    1  A    between atoms: C_2  and  C_3
REMARK    2  A    between atoms: C_5  and  O_6
REMARK    3  A    between atoms: O_6  and  C_7
REMARK    4  A    between atoms: C_12  and  C_13
REMARK    5  A    between atoms: C_14  and  C_15
REMARK                            x       y       z     vdW  Elec       q    Type
REMARK                         _______ _______ _______ _____ _____    ______ ____
ROOT
ATOM      1  C   UNL     1       1.105  -0.525  -0.381  0.00  0.00    +0.000 A 
ATOM      2  C   UNL     1       1.032  -1.858   0.022  0.00  0.00    +0.000 A 
ATOM      3  C   UNL     1      -0.080  -2.472   0.513  0.00  0.00    +0.000 A 
ATOM      4  O   UNL     1      -0.431  -3.803   0.245  0.00  0.00    +0.000 OA
ATOM      5  C   UNL     1      -1.071  -1.592   0.937  0.00  0.00    +0.000 A 
ATOM      6  C   UNL     1      -1.181  -0.301   0.434  0.00  0.00    +0.000 A 
ATOM      7  C   UNL     1      -0.026   0.231  -0.106  0.00  0.00    +0.000 A 
ENDROOT
BRANCH   6   8
ATOM      8  C   UNL     1      -2.494   0.347   0.261  0.00  0.00    +0.000 C 
ATOM      9  C   UNL     1      -3.524  -0.466   0.185  0.00  0.00    +0.000 C 
BRANCH   9  10
ATOM     10  C   UNL     1      -4.879  -0.133  -0.102  0.00  0.00    +0.000 A 
ATOM     11  C   UNL     1      -5.884  -0.678   0.690  0.00  0.00    +0.000 A 
ATOM     12  C   UNL     1      -7.060   0.023   0.932  0.00  0.00    +0.000 A 
ATOM     13  C   UNL     1      -7.232   1.279   0.358  0.00  0.00    +0.000 A 
ATOM     14  O   UNL     1      -7.750   2.354   1.092  0.00  0.00    +0.000 OA
ATOM     15  C   UNL     1      -6.478   1.490  -0.792  0.00  0.00    +0.000 A 
ATOM     16  C   UNL     1      -5.329   0.750  -1.053  0.00  0.00    +0.000 A 
ENDBRANCH   9  10
ENDBRANCH   6   8
BRANCH   1  17
ATOM     17  O   UNL     1       1.999  -0.293  -1.360  0.00  0.00    +0.000 OA
BRANCH  17  20
ATOM     18  C   UNL     1       4.447   1.485   0.593  0.00  0.00    +0.000 C 
ATOM     19  O   UNL     1       3.310   0.540   0.219  0.00  0.00    +0.000 OA
ATOM     20  C   UNL     1       2.988   0.921  -1.242  0.00  0.00    +0.000 C 
ATOM     21  C   UNL     1       4.365   0.038  -1.923  0.00  0.00    +0.000 C 
ATOM     22  O   UNL     1       3.569  -1.068  -2.554  0.00  0.00    +0.000 OA
ATOM     23  C   UNL     1       4.650  -0.828  -0.457  0.00  0.00    +0.000 C 
ATOM     24  O   UNL     1       5.786  -1.581  -1.100  0.00  0.00    +0.000 OA
ATOM     25  C   UNL     1       5.726   0.443   0.012  0.00  0.00    +0.000 C 
ATOM     26  O   UNL     1       5.926  -0.145   1.386  0.00  0.00    +0.000 OA
BRANCH  18  28
ATOM     27  O   UNL     1       4.059   3.437  -0.501  0.00  0.00    +0.000 OA
ATOM     28  C   UNL     1       4.457   2.406  -0.808  0.00  0.00    +0.000 C 
ENDBRANCH  18  28
ENDBRANCH  17  20
ENDBRANCH   1  17
TORSDOF 5
