REMARK  Name = 
REMARK  4 active torsions:
REMARK  status: ('A' for Active; 'I' for Inactive)
REMARK    1  A    between atoms: O_2  and  C_3
REMARK    2  A    between atoms: C_6  and  C_7
REMARK    3  A    between atoms: C_8  and  C_9
REMARK    4  A    between atoms: C_18  and  O_19
REMARK                            x       y       z     vdW  Elec       q    Type
REMARK                         _______ _______ _______ _____ _____    ______ ____
ROOT
ATOM      1  C   UNL     1       3.620  -0.600   0.260  0.00  0.00    +0.000 A 
ATOM      2  C   UNL     1       2.579  -1.507   0.389  0.00  0.00    +0.000 A 
ATOM      3  C   UNL     1       1.280  -1.022   0.406  0.00  0.00    +0.000 A 
ATOM      4  C   UNL     1       1.006   0.323   0.187  0.00  0.00    +0.000 A 
ATOM      5  C   UNL     1       2.066   1.061  -0.328  0.00  0.00    +0.000 A 
ATOM      6  C   UNL     1       3.385   0.700  -0.089  0.00  0.00    +0.000 A 
ENDROOT
BRANCH   1   8
ATOM      7  C   UNL     1       5.240  -2.426  -0.112  0.00  0.00    +0.000 C 
ATOM      8  O   UNL     1       4.913  -1.102   0.222  0.00  0.00    +0.000 OA
ENDBRANCH   1   8
BRANCH   4   9
ATOM      9  C   UNL     1      -0.331   0.806  -0.146  0.00  0.00    +0.000 C 
ATOM     10  C   UNL     1      -1.003   0.441  -1.213  0.00  0.00    +0.000 C 
BRANCH  10  11
ATOM     11  C   UNL     1      -2.436   0.136  -1.125  0.00  0.00    +0.000 A 
ATOM     12  C   UNL     1      -2.820  -1.131  -0.717  0.00  0.00    +0.000 A 
ATOM     13  C   UNL     1      -3.918  -1.344   0.107  0.00  0.00    +0.000 A 
ATOM     14  O   UNL     1      -4.478  -2.622   0.028  0.00  0.00    +0.000 OA
ATOM     15  C   UNL     1      -4.702  -0.254   0.455  0.00  0.00    +0.000 A 
ATOM     16  C   UNL     1      -4.458   0.974  -0.114  0.00  0.00    +0.000 A 
ATOM     17  O   UNL     1      -5.286   2.029   0.282  0.00  0.00    +0.000 OA
ATOM     18  C   UNL     1      -3.286   1.187  -0.812  0.00  0.00    +0.000 A 
ENDBRANCH  10  11
ENDBRANCH   4   9
BRANCH   6  19
ATOM     19  O   UNL     1       4.421   1.537  -0.445  0.00  0.00    +0.000 OA
ATOM     20  C   UNL     1       4.208   2.816  -0.988  0.00  0.00    +0.000 C 
ENDBRANCH   6  19
TORSDOF 4
