REMARK  Name = 
REMARK  5 active torsions:
REMARK  status: ('A' for Active; 'I' for Inactive)
REMARK    1  A    between atoms: C_2  and  C_3
REMARK    2  A    between atoms: C_5  and  O_6
REMARK    3  A    between atoms: O_6  and  C_7
REMARK    4  A    between atoms: C_12  and  C_13
REMARK    5  A    between atoms: C_14  and  C_15
REMARK                            x       y       z     vdW  Elec       q    Type
REMARK                         _______ _______ _______ _____ _____    ______ ____
ROOT
ATOM      1  C   UNL     1      -0.805  -0.941  -0.324  0.00  0.00    +0.000 A 
ATOM      2  C   UNL     1      -1.212  -2.237  -0.203  0.00  0.00    +0.000 A 
ATOM      3  C   UNL     1      -0.343  -3.212   0.219  0.00  0.00    +0.000 A 
ATOM      4  O   UNL     1      -0.768  -4.533   0.368  0.00  0.00    +0.000 OA
ATOM      5  C   UNL     1       0.939  -2.831   0.528  0.00  0.00    +0.000 A 
ATOM      6  C   UNL     1       1.431  -1.555   0.321  0.00  0.00    +0.000 A 
ATOM      7  C   UNL     1       0.503  -0.617  -0.119  0.00  0.00    +0.000 A 
ENDROOT
BRANCH   6   8
ATOM      8  C   UNL     1       2.798  -1.250  -0.029  0.00  0.00    +0.000 C 
ATOM      9  C   UNL     1       3.867  -1.362   0.680  0.00  0.00    +0.000 C 
BRANCH   9  10
ATOM     10  C   UNL     1       5.011  -0.480   0.457  0.00  0.00    +0.000 A 
ATOM     11  C   UNL     1       5.513  -0.166  -0.781  0.00  0.00    +0.000 A 
ATOM     12  C   UNL     1       5.902   1.132  -1.085  0.00  0.00    +0.000 A 
ATOM     13  C   UNL     1       5.873   2.116  -0.122  0.00  0.00    +0.000 A 
ATOM     14  O   UNL     1       6.036   3.455  -0.398  0.00  0.00    +0.000 OA
ATOM     15  C   UNL     1       5.728   1.680   1.189  0.00  0.00    +0.000 A 
ATOM     16  C   UNL     1       5.424   0.358   1.485  0.00  0.00    +0.000 A 
ENDBRANCH   9  10
ENDBRANCH   6   8
BRANCH   1  17
ATOM     17  O   UNL     1      -1.514  -0.089  -1.142  0.00  0.00    +0.000 OA
BRANCH  17  20
ATOM     18  C   UNL     1      -4.295   0.079  -0.046  0.00  0.00    +0.000 C 
ATOM     19  O   UNL     1      -2.924   0.071   0.564  0.00  0.00    +0.000 OA
ATOM     20  C   UNL     1      -2.196   1.051  -0.356  0.00  0.00    +0.000 C 
ATOM     21  C   UNL     1      -3.441   1.107  -1.554  0.00  0.00    +0.000 C 
ATOM     22  O   UNL     1      -2.595   1.990  -2.408  0.00  0.00    +0.000 OA
ATOM     23  C   UNL     1      -4.242   2.435  -0.851  0.00  0.00    +0.000 C 
ATOM     24  O   UNL     1      -5.517   2.046  -1.539  0.00  0.00    +0.000 OA
ATOM     25  C   UNL     1      -4.794   1.614   0.545  0.00  0.00    +0.000 C 
ATOM     26  O   UNL     1      -3.591   2.008   1.340  0.00  0.00    +0.000 OA
BRANCH  18  28
ATOM     27  O   UNL     1      -5.787  -1.153   0.527  0.00  0.00    +0.000 OA
ATOM     28  C   UNL     1      -4.999  -0.716   1.197  0.00  0.00    +0.000 C 
ENDBRANCH  18  28
ENDBRANCH  17  20
ENDBRANCH   1  17
TORSDOF 5
