REMARK  Name = 
REMARK  5 active torsions:
REMARK  status: ('A' for Active; 'I' for Inactive)
REMARK    1  A    between atoms: O_2  and  C_3
REMARK    2  A    between atoms: C_5  and  C_6
REMARK    3  A    between atoms: C_7  and  C_8
REMARK    4  A    between atoms: C_13  and  O_14
REMARK    5  A    between atoms: C_17  and  O_18
REMARK                            x       y       z     vdW  Elec       q    Type
REMARK                         _______ _______ _______ _____ _____    ______ ____
ROOT
ATOM      1  C   UNL     1      -3.222  -0.455   1.217  0.00  0.00    +0.000 A 
ATOM      2  C   UNL     1      -2.161  -1.349   1.164  0.00  0.00    +0.000 A 
ATOM      3  C   UNL     1      -1.333  -1.389   0.050  0.00  0.00    +0.000 A 
ATOM      4  C   UNL     1      -1.768  -0.656  -1.048  0.00  0.00    +0.000 A 
ATOM      5  C   UNL     1      -2.691   0.370  -0.941  0.00  0.00    +0.000 A 
ATOM      6  C   UNL     1      -3.403   0.520   0.243  0.00  0.00    +0.000 A 
ATOM      7  O   UNL     1      -4.137   1.708   0.176  0.00  0.00    +0.000 OA
ATOM      8  C   UNL     1      -3.409   2.536  -0.727  0.00  0.00    +0.000 C 
ATOM      9  O   UNL     1      -2.931   1.554  -1.645  0.00  0.00    +0.000 OA
ENDROOT
BRANCH   1  11
ATOM     10  C   UNL     1      -5.525  -0.864   1.980  0.00  0.00    +0.000 C 
ATOM     11  O   UNL     1      -4.176  -0.553   2.218  0.00  0.00    +0.000 OA
ENDBRANCH   1  11
BRANCH   3  12
ATOM     12  C   UNL     1       0.100  -1.642   0.270  0.00  0.00    +0.000 C 
ATOM     13  C   UNL     1       0.853  -0.875   1.036  0.00  0.00    +0.000 C 
BRANCH  13  14
ATOM     14  C   UNL     1       2.072  -0.207   0.558  0.00  0.00    +0.000 A 
ATOM     15  C   UNL     1       1.999   1.107   0.111  0.00  0.00    +0.000 A 
ATOM     16  C   UNL     1       3.035   1.996   0.286  0.00  0.00    +0.000 A 
ATOM     17  C   UNL     1       4.275   1.428   0.554  0.00  0.00    +0.000 A 
ATOM     18  O   UNL     1       5.339   2.270   0.794  0.00  0.00    +0.000 OA
ATOM     19  C   UNL     1       4.436   0.050   0.603  0.00  0.00    +0.000 A 
ATOM     20  C   UNL     1       3.321  -0.694   0.910  0.00  0.00    +0.000 A 
BRANCH  19  21
ATOM     21  O   UNL     1       5.720  -0.444   0.554  0.00  0.00    +0.000 OA
ATOM     22  C   UNL     1       6.071  -1.716   0.046  0.00  0.00    +0.000 C 
ENDBRANCH  19  21
ENDBRANCH  13  14
ENDBRANCH   3  12
BRANCH   4  23
ATOM     23  O   UNL     1      -1.061  -0.814  -2.216  0.00  0.00    +0.000 OA
ATOM     24  C   UNL     1      -1.407  -1.881  -3.095  0.00  0.00    +0.000 C 
ENDBRANCH   4  23
TORSDOF 5
