REMARK  Name = 
REMARK  7 active torsions:
REMARK  status: ('A' for Active; 'I' for Inactive)
REMARK    1  A    between atoms: O_2  and  C_3
REMARK    2  A    between atoms: C_6  and  C_7
REMARK    3  A    between atoms: C_8  and  C_9
REMARK    4  A    between atoms: C_11  and  O_12
REMARK    5  A    between atoms: C_14  and  O_15
REMARK    6  A    between atoms: C_17  and  O_18
REMARK    7  A    between atoms: C_20  and  O_21
REMARK                            x       y       z     vdW  Elec       q    Type
REMARK                         _______ _______ _______ _____ _____    ______ ____
ROOT
ATOM      1  C   UNL     1      -0.799  -0.197  -1.074  0.00  0.00    +0.000 A 
ATOM      2  C   UNL     1      -0.556  -0.151   0.291  0.00  0.00    +0.000 A 
ATOM      3  C   UNL     1      -1.433   0.584   1.079  0.00  0.00    +0.000 A 
ATOM      4  C   UNL     1      -2.783   0.506   0.755  0.00  0.00    +0.000 A 
ATOM      5  C   UNL     1      -3.138  -0.001  -0.481  0.00  0.00    +0.000 A 
ATOM      6  C   UNL     1      -2.142  -0.136  -1.433  0.00  0.00    +0.000 A 
ENDROOT
BRANCH   1   8
ATOM      7  C   UNL     1       1.115  -1.492  -1.561  0.00  0.00    +0.000 C 
ATOM      8  C   UNL     1       0.077  -0.841  -2.029  0.00  0.00    +0.000 C 
BRANCH   7  12
ATOM      9  C   UNL     1       4.304   0.367   0.349  0.00  0.00    +0.000 A 
ATOM     10  C   UNL     1       3.336   1.134  -0.266  0.00  0.00    +0.000 A 
ATOM     11  C   UNL     1       2.392   0.492  -1.058  0.00  0.00    +0.000 A 
ATOM     12  C   UNL     1       1.962  -0.753  -0.613  0.00  0.00    +0.000 A 
ATOM     13  C   UNL     1       2.936  -1.518   0.018  0.00  0.00    +0.000 A 
ATOM     14  C   UNL     1       4.162  -1.012   0.395  0.00  0.00    +0.000 A 
ATOM     15  O   UNL     1       5.284  -1.823   0.597  0.00  0.00    +0.000 OA
BRANCH   9  17
ATOM     16  C   UNL     1       5.108   1.151   2.482  0.00  0.00    +0.000 C 
ATOM     17  O   UNL     1       5.340   0.930   1.094  0.00  0.00    +0.000 OA
ENDBRANCH   9  17
ENDBRANCH   7  12
ENDBRANCH   1   8
BRANCH   3  18
ATOM     18  O   UNL     1      -0.986   1.377   2.140  0.00  0.00    +0.000 OA
ATOM     19  C   UNL     1      -1.973   1.875   3.025  0.00  0.00    +0.000 C 
ENDBRANCH   3  18
BRANCH   4  20
ATOM     20  O   UNL     1      -3.705   0.769   1.753  0.00  0.00    +0.000 OA
ATOM     21  C   UNL     1      -4.369  -0.319   2.354  0.00  0.00    +0.000 C 
ENDBRANCH   4  20
BRANCH   5  22
ATOM     22  O   UNL     1      -4.481  -0.265  -0.764  0.00  0.00    +0.000 OA
ATOM     23  C   UNL     1      -4.842  -1.642  -0.796  0.00  0.00    +0.000 C 
ENDBRANCH   5  22
BRANCH   6  24
ATOM     24  O   UNL     1      -2.533  -0.111  -2.775  0.00  0.00    +0.000 OA
ATOM     25  C   UNL     1      -2.274   1.075  -3.481  0.00  0.00    +0.000 C 
ENDBRANCH   6  24
TORSDOF 7
