REMARK  Name = 
REMARK  5 active torsions:
REMARK  status: ('A' for Active; 'I' for Inactive)
REMARK    1  A    between atoms: O_2  and  C_3
REMARK    2  A    between atoms: C_6  and  C_7
REMARK    3  A    between atoms: C_8  and  C_9
REMARK    4  A    between atoms: C_13  and  O_14
REMARK    5  A    between atoms: C_16  and  O_17
REMARK                            x       y       z     vdW  Elec       q    Type
REMARK                         _______ _______ _______ _____ _____    ______ ____
ROOT
ATOM      1  C   UNL     1      -0.893  -0.385   0.446  0.00  0.00    +0.000 A 
ATOM      2  C   UNL     1      -1.575  -1.491  -0.044  0.00  0.00    +0.000 A 
ATOM      3  C   UNL     1      -2.933  -1.450  -0.336  0.00  0.00    +0.000 A 
ATOM      4  C   UNL     1      -3.632  -0.255  -0.215  0.00  0.00    +0.000 A 
ATOM      5  C   UNL     1      -2.854   0.890  -0.153  0.00  0.00    +0.000 A 
ATOM      6  C   UNL     1      -1.578   0.823   0.389  0.00  0.00    +0.000 A 
ATOM      7  O   UNL     1      -4.971  -0.549   0.045  0.00  0.00    +0.000 OA
ATOM      8  C   UNL     1      -5.130  -1.961   0.162  0.00  0.00    +0.000 C 
ATOM      9  O   UNL     1      -3.935  -2.415  -0.469  0.00  0.00    +0.000 OA
ENDROOT
BRANCH   1  11
ATOM     10  C   UNL     1       1.153   0.282   1.371  0.00  0.00    +0.000 C 
ATOM     11  C   UNL     1       0.080  -0.495   1.543  0.00  0.00    +0.000 C 
BRANCH  10  15
ATOM     12  C   UNL     1       4.517  -0.277  -0.920  0.00  0.00    +0.000 A 
ATOM     13  C   UNL     1       3.716   0.830  -1.173  0.00  0.00    +0.000 A 
ATOM     14  C   UNL     1       2.417   0.920  -0.687  0.00  0.00    +0.000 A 
ATOM     15  C   UNL     1       1.922  -0.051   0.163  0.00  0.00    +0.000 A 
ATOM     16  C   UNL     1       2.593  -1.268   0.138  0.00  0.00    +0.000 A 
ATOM     17  C   UNL     1       3.865  -1.392  -0.406  0.00  0.00    +0.000 A 
ATOM     18  O   UNL     1       4.596  -2.570  -0.225  0.00  0.00    +0.000 OA
BRANCH  12  20
ATOM     19  C   UNL     1       6.514   1.106  -0.480  0.00  0.00    +0.000 C 
ATOM     20  O   UNL     1       5.893  -0.155  -0.703  0.00  0.00    +0.000 OA
ENDBRANCH  12  20
ENDBRANCH  10  15
ENDBRANCH   1  11
BRANCH   5  21
ATOM     21  O   UNL     1      -3.551   2.102  -0.163  0.00  0.00    +0.000 OA
ATOM     22  C   UNL     1      -4.051   2.546  -1.421  0.00  0.00    +0.000 C 
ENDBRANCH   5  21
BRANCH   6  23
ATOM     23  O   UNL     1      -0.931   1.960   0.882  0.00  0.00    +0.000 OA
ATOM     24  C   UNL     1      -1.232   3.257   0.435  0.00  0.00    +0.000 C 
ENDBRANCH   6  23
TORSDOF 5
