REMARK  Name = 
REMARK  5 active torsions:
REMARK  status: ('A' for Active; 'I' for Inactive)
REMARK    1  A    between atoms: O_2  and  C_3
REMARK    2  A    between atoms: C_6  and  C_7
REMARK    3  A    between atoms: C_8  and  C_9
REMARK    4  A    between atoms: C_8  and  C_11
REMARK    5  A    between atoms: C_15  and  O_16
REMARK                            x       y       z     vdW  Elec       q    Type
REMARK                         _______ _______ _______ _____ _____    ______ ____
ROOT
ATOM      1  C   UNL     1       0.828  -0.834  -0.364  0.00  0.00    +0.000 C 
ATOM      2  C   UNL     1       0.222  -0.448   0.761  0.00  0.00    +0.000 C 
ENDROOT
BRANCH   2   3
ATOM      3  C   UNL     1      -1.237  -0.304   0.660  0.00  0.00    +0.000 A 
ATOM      4  C   UNL     1      -1.704   0.983   0.499  0.00  0.00    +0.000 A 
ATOM      5  C   UNL     1      -3.022   1.144   0.128  0.00  0.00    +0.000 A 
ATOM      6  C   UNL     1      -3.818   0.043  -0.152  0.00  0.00    +0.000 A 
ATOM      7  C   UNL     1      -3.424  -1.160   0.409  0.00  0.00    +0.000 A 
ATOM      8  C   UNL     1      -2.126  -1.311   0.882  0.00  0.00    +0.000 A 
ATOM      9  O   UNL     1      -4.838   0.453  -1.000  0.00  0.00    +0.000 OA
ATOM     10  C   UNL     1      -4.923   1.870  -0.902  0.00  0.00    +0.000 C 
ATOM     11  O   UNL     1      -3.792   2.271  -0.153  0.00  0.00    +0.000 OA
BRANCH   7  12
ATOM     12  O   UNL     1      -4.201  -2.276   0.104  0.00  0.00    +0.000 OA
ATOM     13  C   UNL     1      -4.130  -2.764  -1.210  0.00  0.00    +0.000 C 
ENDBRANCH   7  12
ENDBRANCH   2   3
BRANCH   1  17
ATOM     14  C   UNL     1       4.850   0.131  -0.777  0.00  0.00    +0.000 A 
ATOM     15  C   UNL     1       4.346  -0.252   0.458  0.00  0.00    +0.000 A 
ATOM     16  C   UNL     1       3.087  -0.827   0.531  0.00  0.00    +0.000 A 
ATOM     17  C   UNL     1       2.262  -0.722  -0.561  0.00  0.00    +0.000 A 
ATOM     18  C   UNL     1       2.834  -0.621  -1.799  0.00  0.00    +0.000 A 
ATOM     19  C   UNL     1       4.093  -0.049  -1.929  0.00  0.00    +0.000 A 
BRANCH  14  21
ATOM     20  C   UNL     1       6.281   2.010  -1.485  0.00  0.00    +0.000 C 
ATOM     21  O   UNL     1       6.051   0.817  -0.774  0.00  0.00    +0.000 OA
ENDBRANCH  14  21
ENDBRANCH   1  17
BRANCH   2  22
ATOM     22  C   UNL     1       0.983   0.454   1.600  0.00  0.00    +0.000 C 
ATOM     23  N   UNL     1       1.378   1.393   2.171  0.00  0.00    +0.000 NA
ENDBRANCH   2  22
TORSDOF 5
