REMARK  Name = 
REMARK  5 active torsions:
REMARK  status: ('A' for Active; 'I' for Inactive)
REMARK    1  A    between atoms: O_2  and  C_3
REMARK    2  A    between atoms: C_6  and  C_7
REMARK    3  A    between atoms: C_7  and  C_8
REMARK    4  A    between atoms: C_10  and  C_11
REMARK    5  A    between atoms: C_15  and  O_16
REMARK                            x       y       z     vdW  Elec       q    Type
REMARK                         _______ _______ _______ _____ _____    ______ ____
ROOT
ATOM      1  C   UNL     1       1.125  -1.530  -0.042  0.00  0.00    +0.000 C 
ATOM      2  C   UNL     1       0.084  -1.210  -0.805  0.00  0.00    +0.000 C 
ENDROOT
BRANCH   2   3
ATOM      3  C   UNL     1      -1.226  -0.937  -0.197  0.00  0.00    +0.000 A 
ATOM      4  C   UNL     1      -2.323  -1.240  -0.995  0.00  0.00    +0.000 A 
ATOM      5  C   UNL     1      -3.567  -0.665  -0.769  0.00  0.00    +0.000 A 
ATOM      6  C   UNL     1      -3.620   0.478   0.019  0.00  0.00    +0.000 A 
ATOM      7  C   UNL     1      -2.479   0.980   0.625  0.00  0.00    +0.000 A 
ATOM      8  C   UNL     1      -1.353   0.201   0.589  0.00  0.00    +0.000 A 
ATOM      9  O   UNL     1      -4.971   0.717   0.249  0.00  0.00    +0.000 OA
ATOM     10  C   UNL     1      -5.661   0.160  -0.849  0.00  0.00    +0.000 C 
ATOM     11  O   UNL     1      -4.818  -0.850  -1.352  0.00  0.00    +0.000 OA
BRANCH   7  12
ATOM     12  O   UNL     1      -2.480   2.319   1.033  0.00  0.00    +0.000 OA
ATOM     13  C   UNL     1      -1.342   3.129   0.746  0.00  0.00    +0.000 C 
ENDBRANCH   7  12
ENDBRANCH   2   3
BRANCH   1  17
ATOM     14  C   UNL     1       4.571   0.747  -0.271  0.00  0.00    +0.000 A 
ATOM     15  C   UNL     1       3.639   0.814  -1.282  0.00  0.00    +0.000 A 
ATOM     16  C   UNL     1       2.699  -0.200  -1.420  0.00  0.00    +0.000 A 
ATOM     17  C   UNL     1       2.487  -1.138  -0.420  0.00  0.00    +0.000 A 
ATOM     18  C   UNL     1       3.493  -1.228   0.532  0.00  0.00    +0.000 A 
ATOM     19  C   UNL     1       4.612  -0.406   0.469  0.00  0.00    +0.000 A 
BRANCH  14  21
ATOM     20  C   UNL     1       4.491   3.184   0.006  0.00  0.00    +0.000 C 
ATOM     21  O   UNL     1       5.171   1.937   0.135  0.00  0.00    +0.000 OA
ENDBRANCH  14  21
ENDBRANCH   1  17
BRANCH   1  22
ATOM     22  C   UNL     1       0.881  -2.233   1.180  0.00  0.00    +0.000 C 
ATOM     23  N   UNL     1       0.588  -3.027   1.985  0.00  0.00    +0.000 NA
ENDBRANCH   1  22
TORSDOF 5
