REMARK  Name = 
REMARK  7 active torsions:
REMARK  status: ('A' for Active; 'I' for Inactive)
REMARK    1  A    between atoms: O_2  and  C_3
REMARK    2  A    between atoms: C_5  and  C_6
REMARK    3  A    between atoms: C_7  and  C_8
REMARK    4  A    between atoms: C_7  and  C_10
REMARK    5  A    between atoms: C_12  and  O_13
REMARK    6  A    between atoms: C_15  and  O_16
REMARK    7  A    between atoms: C_18  and  O_19
REMARK                            x       y       z     vdW  Elec       q    Type
REMARK                         _______ _______ _______ _____ _____    ______ ____
ROOT
ATOM      1  C   UNL     1       0.520  -0.690   1.064  0.00  0.00    +0.000 C 
ATOM      2  C   UNL     1      -0.363  -1.163   0.186  0.00  0.00    +0.000 C 
ENDROOT
BRANCH   1   5
ATOM      3  C   UNL     1       3.625   0.995  -0.040  0.00  0.00    +0.000 A 
ATOM      4  C   UNL     1       2.344   0.751   0.397  0.00  0.00    +0.000 A 
ATOM      5  C   UNL     1       1.941  -0.536   0.736  0.00  0.00    +0.000 A 
ATOM      6  C   UNL     1       2.828  -1.577   0.709  0.00  0.00    +0.000 A 
ATOM      7  C   UNL     1       4.079  -1.320   0.173  0.00  0.00    +0.000 A 
ATOM      8  C   UNL     1       4.392  -0.095  -0.388  0.00  0.00    +0.000 A 
ATOM      9  O   UNL     1       5.735  -0.152  -0.702  0.00  0.00    +0.000 OA
ATOM     10  C   UNL     1       6.330  -1.337  -0.235  0.00  0.00    +0.000 C 
ATOM     11  O   UNL     1       5.237  -2.086   0.273  0.00  0.00    +0.000 OA
BRANCH   3  13
ATOM     12  C   UNL     1       3.909   3.440  -0.127  0.00  0.00    +0.000 C 
ATOM     13  O   UNL     1       3.886   2.174  -0.746  0.00  0.00    +0.000 OA
ENDBRANCH   3  13
ENDBRANCH   1   5
BRANCH   2  14
ATOM     14  C   UNL     1      -1.675  -0.540  -0.022  0.00  0.00    +0.000 A 
ATOM     15  C   UNL     1      -2.847  -1.284   0.033  0.00  0.00    +0.000 A 
ATOM     16  C   UNL     1      -4.070  -0.671  -0.216  0.00  0.00    +0.000 A 
ATOM     17  C   UNL     1      -4.121   0.690   0.051  0.00  0.00    +0.000 A 
ATOM     18  C   UNL     1      -2.987   1.453  -0.198  0.00  0.00    +0.000 A 
ATOM     19  C   UNL     1      -1.810   0.770  -0.464  0.00  0.00    +0.000 A 
BRANCH  16  20
ATOM     20  O   UNL     1      -5.252  -1.363  -0.349  0.00  0.00    +0.000 OA
ATOM     21  C   UNL     1      -6.254  -1.089  -1.292  0.00  0.00    +0.000 C 
ENDBRANCH  16  20
BRANCH  17  22
ATOM     22  O   UNL     1      -5.271   1.304   0.554  0.00  0.00    +0.000 OA
ATOM     23  C   UNL     1      -5.382   1.314   1.975  0.00  0.00    +0.000 C 
ENDBRANCH  17  22
BRANCH  18  24
ATOM     24  O   UNL     1      -2.987   2.821   0.096  0.00  0.00    +0.000 OA
ATOM     25  C   UNL     1      -2.559   3.288   1.372  0.00  0.00    +0.000 C 
ENDBRANCH  18  24
ENDBRANCH   2  14
BRANCH   2  26
ATOM     26  C   UNL     1       0.149  -2.179  -0.706  0.00  0.00    +0.000 C 
ATOM     27  N   UNL     1       0.602  -2.918  -1.488  0.00  0.00    +0.000 NA
ENDBRANCH   2  26
TORSDOF 7
