REMARK  Name = 
REMARK  5 active torsions:
REMARK  status: ('A' for Active; 'I' for Inactive)
REMARK    1  A    between atoms: O_2  and  C_3
REMARK    2  A    between atoms: C_5  and  C_6
REMARK    3  A    between atoms: C_7  and  C_8
REMARK    4  A    between atoms: C_7  and  C_10
REMARK    5  A    between atoms: C_14  and  O_15
REMARK                            x       y       z     vdW  Elec       q    Type
REMARK                         _______ _______ _______ _____ _____    ______ ____
ROOT
ATOM      1  C   UNL     1       0.478   0.623   0.893  0.00  0.00    +0.000 C 
ATOM      2  C   UNL     1      -0.373   0.079   0.024  0.00  0.00    +0.000 C 
ENDROOT
BRANCH   1   5
ATOM      3  C   UNL     1       3.700  -0.996  -0.053  0.00  0.00    +0.000 A 
ATOM      4  C   UNL     1       2.346  -0.794   0.182  0.00  0.00    +0.000 A 
ATOM      5  C   UNL     1       1.895   0.427   0.657  0.00  0.00    +0.000 A 
ATOM      6  C   UNL     1       2.872   1.312   1.074  0.00  0.00    +0.000 A 
ATOM      7  C   UNL     1       4.206   1.171   0.712  0.00  0.00    +0.000 A 
ATOM      8  C   UNL     1       4.576   0.078  -0.062  0.00  0.00    +0.000 A 
ATOM      9  O   UNL     1       5.634   0.428  -0.903  0.00  0.00    +0.000 OA
ATOM     10  C   UNL     1       6.009   1.749  -0.605  0.00  0.00    +0.000 C 
ATOM     11  O   UNL     1       5.257   2.077   0.538  0.00  0.00    +0.000 OA
BRANCH   3  13
ATOM     12  C   UNL     1       3.300  -3.283  -0.878  0.00  0.00    +0.000 C 
ATOM     13  O   UNL     1       4.163  -2.215  -0.540  0.00  0.00    +0.000 OA
ENDBRANCH   3  13
ENDBRANCH   1   5
BRANCH   2  14
ATOM     14  C   UNL     1      -1.774   0.067   0.393  0.00  0.00    +0.000 A 
ATOM     15  C   UNL     1      -2.445   1.197   0.846  0.00  0.00    +0.000 A 
ATOM     16  C   UNL     1      -3.815   1.302   0.639  0.00  0.00    +0.000 A 
ATOM     17  C   UNL     1      -4.544   0.145   0.444  0.00  0.00    +0.000 A 
ATOM     18  C   UNL     1      -3.874  -1.068   0.398  0.00  0.00    +0.000 A 
ATOM     19  C   UNL     1      -2.491  -1.116   0.464  0.00  0.00    +0.000 A 
ATOM     20  O   UNL     1      -5.772   0.486  -0.128  0.00  0.00    +0.000 OA
ATOM     21  C   UNL     1      -5.830   1.896  -0.323  0.00  0.00    +0.000 C 
ATOM     22  O   UNL     1      -4.689   2.352   0.372  0.00  0.00    +0.000 OA
BRANCH  18  23
ATOM     23  O   UNL     1      -4.598  -2.243   0.594  0.00  0.00    +0.000 OA
ATOM     24  C   UNL     1      -4.475  -3.287  -0.353  0.00  0.00    +0.000 C 
ENDBRANCH  18  23
ENDBRANCH   2  14
BRANCH   2  25
ATOM     25  C   UNL     1      -0.028   0.040  -1.378  0.00  0.00    +0.000 C 
ATOM     26  N   UNL     1       0.274  -0.426  -2.402  0.00  0.00    +0.000 NA
ENDBRANCH   2  25
TORSDOF 5
