REMARK  Name = 
REMARK  7 active torsions:
REMARK  status: ('A' for Active; 'I' for Inactive)
REMARK    1  A    between atoms: O_2  and  C_3
REMARK    2  A    between atoms: C_6  and  C_7
REMARK    3  A    between atoms: C_7  and  C_8
REMARK    4  A    between atoms: C_10  and  C_11
REMARK    5  A    between atoms: C_13  and  O_14
REMARK    6  A    between atoms: C_16  and  O_17
REMARK    7  A    between atoms: C_19  and  O_20
REMARK                            x       y       z     vdW  Elec       q    Type
REMARK                         _______ _______ _______ _____ _____    ______ ____
ROOT
ATOM      1  C   UNL     1      -1.325  -1.611  -0.955  0.00  0.00    +0.000 C 
ATOM      2  C   UNL     1      -0.554  -1.431   0.090  0.00  0.00    +0.000 C 
ENDROOT
BRANCH   1   6
ATOM      3  C   UNL     1      -4.347   0.954   0.101  0.00  0.00    +0.000 A 
ATOM      4  C   UNL     1      -4.526  -0.402   0.340  0.00  0.00    +0.000 A 
ATOM      5  C   UNL     1      -3.697  -1.361  -0.230  0.00  0.00    +0.000 A 
ATOM      6  C   UNL     1      -2.648  -0.977  -1.057  0.00  0.00    +0.000 A 
ATOM      7  C   UNL     1      -2.772   0.298  -1.598  0.00  0.00    +0.000 A 
ATOM      8  C   UNL     1      -3.556   1.275  -0.995  0.00  0.00    +0.000 A 
BRANCH   3  10
ATOM      9  C   UNL     1      -4.165   1.678   2.455  0.00  0.00    +0.000 C 
ATOM     10  O   UNL     1      -4.598   1.884   1.113  0.00  0.00    +0.000 OA
ENDBRANCH   3  10
ENDBRANCH   1   6
BRANCH   2  11
ATOM     11  C   UNL     1       0.875  -1.143   0.025  0.00  0.00    +0.000 A 
ATOM     12  C   UNL     1       1.444  -0.326  -0.938  0.00  0.00    +0.000 A 
ATOM     13  C   UNL     1       2.320   0.703  -0.616  0.00  0.00    +0.000 A 
ATOM     14  C   UNL     1       2.920   0.694   0.638  0.00  0.00    +0.000 A 
ATOM     15  C   UNL     1       2.674  -0.389   1.476  0.00  0.00    +0.000 A 
ATOM     16  C   UNL     1       1.591  -1.219   1.215  0.00  0.00    +0.000 A 
BRANCH  13  17
ATOM     17  O   UNL     1       3.008   1.338  -1.655  0.00  0.00    +0.000 OA
ATOM     18  C   UNL     1       4.061   0.606  -2.272  0.00  0.00    +0.000 C 
ENDBRANCH  13  17
BRANCH  14  19
ATOM     19  O   UNL     1       3.571   1.837   1.048  0.00  0.00    +0.000 OA
ATOM     20  C   UNL     1       2.925   3.070   1.304  0.00  0.00    +0.000 C 
ENDBRANCH  14  19
BRANCH  15  21
ATOM     21  O   UNL     1       3.184  -0.250   2.771  0.00  0.00    +0.000 OA
ATOM     22  C   UNL     1       4.499  -0.739   3.020  0.00  0.00    +0.000 C 
ENDBRANCH  15  21
ENDBRANCH   2  11
BRANCH   1  23
ATOM     23  C   UNL     1      -0.682  -1.965  -2.190  0.00  0.00    +0.000 C 
ATOM     24  N   UNL     1      -0.202  -2.524  -3.089  0.00  0.00    +0.000 NA
ENDBRANCH   1  23
TORSDOF 7
