REMARK  Name = 
REMARK  7 active torsions:
REMARK  status: ('A' for Active; 'I' for Inactive)
REMARK    1  A    between atoms: O_2  and  C_3
REMARK    2  A    between atoms: C_5  and  C_6
REMARK    3  A    between atoms: C_6  and  C_7
REMARK    4  A    between atoms: C_9  and  C_10
REMARK    5  A    between atoms: C_12  and  O_13
REMARK    6  A    between atoms: C_15  and  O_16
REMARK    7  A    between atoms: C_18  and  O_19
REMARK                            x       y       z     vdW  Elec       q    Type
REMARK                         _______ _______ _______ _____ _____    ______ ____
ROOT
ATOM      1  C   UNL     1      -0.623   0.217  -0.454  0.00  0.00    +0.000 C 
ATOM      2  C   UNL     1       0.211  -0.492  -1.205  0.00  0.00    +0.000 C 
ENDROOT
BRANCH   1   5
ATOM      3  C   UNL     1      -3.967  -0.818   0.640  0.00  0.00    +0.000 A 
ATOM      4  C   UNL     1      -2.667  -0.979   0.185  0.00  0.00    +0.000 A 
ATOM      5  C   UNL     1      -2.058  -0.037  -0.634  0.00  0.00    +0.000 A 
ATOM      6  C   UNL     1      -2.902   0.889  -1.234  0.00  0.00    +0.000 A 
ATOM      7  C   UNL     1      -4.220   1.018  -0.861  0.00  0.00    +0.000 A 
ATOM      8  C   UNL     1      -4.685   0.298   0.231  0.00  0.00    +0.000 A 
ATOM      9  O   UNL     1      -5.755   0.953   0.823  0.00  0.00    +0.000 OA
ATOM     10  C   UNL     1      -6.165   1.935  -0.097  0.00  0.00    +0.000 C 
ATOM     11  O   UNL     1      -5.276   1.850  -1.206  0.00  0.00    +0.000 OA
BRANCH   3  13
ATOM     12  C   UNL     1      -4.405  -3.141   0.962  0.00  0.00    +0.000 C 
ATOM     13  O   UNL     1      -4.587  -1.810   1.396  0.00  0.00    +0.000 OA
ENDBRANCH   3  13
ENDBRANCH   1   5
BRANCH   2  14
ATOM     14  C   UNL     1       1.634  -0.456  -0.863  0.00  0.00    +0.000 A 
ATOM     15  C   UNL     1       2.384  -1.601  -0.679  0.00  0.00    +0.000 A 
ATOM     16  C   UNL     1       3.712  -1.561  -0.291  0.00  0.00    +0.000 A 
ATOM     17  C   UNL     1       4.282  -0.299  -0.184  0.00  0.00    +0.000 A 
ATOM     18  C   UNL     1       3.505   0.849  -0.091  0.00  0.00    +0.000 A 
ATOM     19  C   UNL     1       2.236   0.777  -0.651  0.00  0.00    +0.000 A 
BRANCH  16  20
ATOM     20  O   UNL     1       4.313  -2.628   0.377  0.00  0.00    +0.000 OA
ATOM     21  C   UNL     1       5.724  -2.757   0.376  0.00  0.00    +0.000 C 
ENDBRANCH  16  20
BRANCH  17  22
ATOM     22  O   UNL     1       5.677  -0.225  -0.231  0.00  0.00    +0.000 OA
ATOM     23  C   UNL     1       6.273   0.903   0.376  0.00  0.00    +0.000 C 
ENDBRANCH  17  22
BRANCH  18  24
ATOM     24  O   UNL     1       4.089   2.105  -0.015  0.00  0.00    +0.000 OA
ATOM     25  C   UNL     1       3.255   3.159   0.460  0.00  0.00    +0.000 C 
ENDBRANCH  18  24
ENDBRANCH   2  14
BRANCH   1  26
ATOM     26  C   UNL     1      -0.147   0.853   0.749  0.00  0.00    +0.000 C 
ATOM     27  N   UNL     1       0.163   0.996   1.862  0.00  0.00    +0.000 NA
ENDBRANCH   1  26
TORSDOF 7
