REMARK  Name = 
REMARK  7 active torsions:
REMARK  status: ('A' for Active; 'I' for Inactive)
REMARK    1  A    between atoms: O_2  and  C_3
REMARK    2  A    between atoms: C_6  and  C_7
REMARK    3  A    between atoms: C_8  and  C_9
REMARK    4  A    between atoms: C_11  and  O_12
REMARK    5  A    between atoms: C_14  and  O_15
REMARK    6  A    between atoms: C_17  and  O_18
REMARK    7  A    between atoms: C_20  and  O_21
REMARK                            x       y       z     vdW  Elec       q    Type
REMARK                         _______ _______ _______ _____ _____    ______ ____
ROOT
ATOM      1  C   UNL     1       1.100  -0.127   0.597  0.00  0.00    +0.000 A 
ATOM      2  C   UNL     1       1.412   1.209   0.818  0.00  0.00    +0.000 A 
ATOM      3  C   UNL     1       2.517   1.775   0.195  0.00  0.00    +0.000 A 
ATOM      4  C   UNL     1       3.383   1.023  -0.589  0.00  0.00    +0.000 A 
ATOM      5  C   UNL     1       3.225  -0.354  -0.496  0.00  0.00    +0.000 A 
ATOM      6  C   UNL     1       2.167  -0.924   0.202  0.00  0.00    +0.000 A 
ENDROOT
BRANCH   1   8
ATOM      7  C   UNL     1      -0.953  -1.071  -0.357  0.00  0.00    +0.000 C 
ATOM      8  C   UNL     1      -0.256  -0.620   0.658  0.00  0.00    +0.000 C 
BRANCH   7  12
ATOM      9  C   UNL     1      -4.947  -0.254   0.127  0.00  0.00    +0.000 A 
ATOM     10  C   UNL     1      -4.311  -0.985   1.124  0.00  0.00    +0.000 A 
ATOM     11  C   UNL     1      -3.047  -1.529   0.929  0.00  0.00    +0.000 A 
ATOM     12  C   UNL     1      -2.390  -1.368  -0.285  0.00  0.00    +0.000 A 
ATOM     13  C   UNL     1      -3.228  -1.072  -1.355  0.00  0.00    +0.000 A 
ATOM     14  C   UNL     1      -4.467  -0.474  -1.159  0.00  0.00    +0.000 A 
ATOM     15  O   UNL     1      -5.212   0.031  -2.229  0.00  0.00    +0.000 OA
BRANCH   9  17
ATOM     16  C   UNL     1      -5.001   2.165   0.496  0.00  0.00    +0.000 C 
ATOM     17  O   UNL     1      -5.666   0.910   0.417  0.00  0.00    +0.000 OA
ENDBRANCH   9  17
ENDBRANCH   7  12
ENDBRANCH   1   8
BRANCH   3  18
ATOM     18  O   UNL     1       2.673   3.157   0.104  0.00  0.00    +0.000 OA
ATOM     19  C   UNL     1       3.211   3.909   1.177  0.00  0.00    +0.000 C 
ENDBRANCH   3  18
BRANCH   4  20
ATOM     20  O   UNL     1       3.949   1.555  -1.752  0.00  0.00    +0.000 OA
ATOM     21  C   UNL     1       3.080   1.744  -2.857  0.00  0.00    +0.000 C 
ENDBRANCH   4  20
BRANCH   5  22
ATOM     22  O   UNL     1       4.190  -1.143  -1.113  0.00  0.00    +0.000 OA
ATOM     23  C   UNL     1       4.870  -2.119  -0.329  0.00  0.00    +0.000 C 
ENDBRANCH   5  22
BRANCH   6  24
ATOM     24  O   UNL     1       2.039  -2.295   0.311  0.00  0.00    +0.000 OA
ATOM     25  C   UNL     1       1.663  -3.144  -0.750  0.00  0.00    +0.000 C 
ENDBRANCH   6  24
TORSDOF 7
