REMARK  Name = 
REMARK  5 active torsions:
REMARK  status: ('A' for Active; 'I' for Inactive)
REMARK    1  A    between atoms: O_2  and  C_3
REMARK    2  A    between atoms: C_6  and  C_7
REMARK    3  A    between atoms: C_8  and  C_9
REMARK    4  A    between atoms: C_13  and  O_14
REMARK    5  A    between atoms: C_16  and  O_17
REMARK                            x       y       z     vdW  Elec       q    Type
REMARK                         _______ _______ _______ _____ _____    ______ ____
ROOT
ATOM      1  C   UNL     1      -1.336   0.147  -0.493  0.00  0.00    +0.000 A 
ATOM      2  C   UNL     1      -1.956   1.353  -0.723  0.00  0.00    +0.000 A 
ATOM      3  C   UNL     1      -3.284   1.571  -0.384  0.00  0.00    +0.000 A 
ATOM      4  C   UNL     1      -4.050   0.481   0.010  0.00  0.00    +0.000 A 
ATOM      5  C   UNL     1      -3.427  -0.685   0.425  0.00  0.00    +0.000 A 
ATOM      6  C   UNL     1      -2.061  -0.805   0.212  0.00  0.00    +0.000 A 
ATOM      7  O   UNL     1      -5.372   0.935  -0.003  0.00  0.00    +0.000 OA
ATOM      8  C   UNL     1      -5.354   2.345   0.114  0.00  0.00    +0.000 C 
ATOM      9  O   UNL     1      -4.019   2.733  -0.159  0.00  0.00    +0.000 OA
ENDROOT
BRANCH   1  11
ATOM     10  C   UNL     1       1.017   0.458  -1.115  0.00  0.00    +0.000 C 
ATOM     11  C   UNL     1      -0.082  -0.260  -1.094  0.00  0.00    +0.000 C 
BRANCH  10  15
ATOM     12  C   UNL     1       5.005   0.363  -0.050  0.00  0.00    +0.000 A 
ATOM     13  C   UNL     1       4.038   0.328   0.944  0.00  0.00    +0.000 A 
ATOM     14  C   UNL     1       2.709   0.176   0.582  0.00  0.00    +0.000 A 
ATOM     15  C   UNL     1       2.333  -0.059  -0.734  0.00  0.00    +0.000 A 
ATOM     16  C   UNL     1       3.340  -0.308  -1.628  0.00  0.00    +0.000 A 
ATOM     17  C   UNL     1       4.671  -0.205  -1.274  0.00  0.00    +0.000 A 
ATOM     18  O   UNL     1       5.628  -0.831  -2.073  0.00  0.00    +0.000 OA
BRANCH  12  20
ATOM     19  C   UNL     1       7.028  -0.541   0.858  0.00  0.00    +0.000 C 
ATOM     20  O   UNL     1       6.357   0.545   0.248  0.00  0.00    +0.000 OA
ENDBRANCH  12  20
ENDBRANCH  10  15
ENDBRANCH   1  11
BRANCH   5  21
ATOM     21  O   UNL     1      -4.211  -1.826   0.625  0.00  0.00    +0.000 OA
ATOM     22  C   UNL     1      -4.402  -2.642  -0.528  0.00  0.00    +0.000 C 
ENDBRANCH   5  21
BRANCH   6  23
ATOM     23  O   UNL     1      -1.402  -1.776   0.946  0.00  0.00    +0.000 OA
ATOM     24  C   UNL     1      -1.170  -1.498   2.317  0.00  0.00    +0.000 C 
ENDBRANCH   6  23
TORSDOF 5
