REMARK  Name = 
REMARK  2 active torsions:
REMARK  status: ('A' for Active; 'I' for Inactive)
REMARK    1  A    between atoms: C_5  and  C_6
REMARK    2  A    between atoms: C_7  and  C_8
REMARK                            x       y       z     vdW  Elec       q    Type
REMARK                         _______ _______ _______ _____ _____    ______ ____
ROOT
ATOM      1  C   UNL     1       0.974   1.881   0.050  0.00  0.00    +0.000 C 
ATOM      2  C   UNL     1      -0.054   2.033  -0.787  0.00  0.00    +0.000 C 
ENDROOT
BRANCH   2   3
ATOM      3  C   UNL     1      -1.101   1.021  -0.653  0.00  0.00    +0.000 A 
ATOM      4  C   UNL     1      -0.867  -0.305  -0.433  0.00  0.00    +0.000 A 
ATOM      5  C   UNL     1      -1.889  -1.179  -0.089  0.00  0.00    +0.000 A 
ATOM      6  O   UNL     1      -1.736  -2.549  -0.320  0.00  0.00    +0.000 OA
ATOM      7  C   UNL     1      -3.144  -0.653   0.184  0.00  0.00    +0.000 A 
ATOM      8  O   UNL     1      -4.103  -1.449   0.772  0.00  0.00    +0.000 OA
ATOM      9  C   UNL     1      -3.433   0.660  -0.116  0.00  0.00    +0.000 A 
ATOM     10  O   UNL     1      -4.678   1.231   0.075  0.00  0.00    +0.000 OA
ATOM     11  C   UNL     1      -2.363   1.506  -0.333  0.00  0.00    +0.000 A 
ENDBRANCH   2   3
BRANCH   1  16
ATOM     12  O   UNL     1       5.370  -1.082   0.648  0.00  0.00    +0.000 OA
ATOM     13  C   UNL     1       4.035  -0.892   0.274  0.00  0.00    +0.000 A 
ATOM     14  C   UNL     1       3.757  -0.259  -0.918  0.00  0.00    +0.000 A 
ATOM     15  C   UNL     1       2.524   0.358  -1.094  0.00  0.00    +0.000 A 
ATOM     16  C   UNL     1       1.650   0.580  -0.047  0.00  0.00    +0.000 A 
ATOM     17  C   UNL     1       1.993  -0.011   1.164  0.00  0.00    +0.000 A 
ATOM     18  C   UNL     1       3.062  -0.892   1.258  0.00  0.00    +0.000 A 
ENDBRANCH   1  16
TORSDOF 2
