REMARK  Name = 
REMARK  8 active torsions:
REMARK  status: ('A' for Active; 'I' for Inactive)
REMARK    1  A    between atoms: O_2  and  C_3
REMARK    2  A    between atoms: C_5  and  C_6
REMARK    3  A    between atoms: C_7  and  C_8
REMARK    4  A    between atoms: C_10  and  O_11
REMARK    5  A    between atoms: C_13  and  O_14
REMARK    6  A    between atoms: C_16  and  O_17
REMARK    7  A    between atoms: C_21  and  O_22
REMARK    8  A    between atoms: C_24  and  O_25
REMARK                            x       y       z     vdW  Elec       q    Type
REMARK                         _______ _______ _______ _____ _____    ______ ____
ROOT
ATOM      1  C   UNL     1       0.649  -1.415  -1.636  0.00  0.00    +0.000 C 
ATOM      2  C   UNL     1      -0.532  -1.740  -1.107  0.00  0.00    +0.000 C 
ENDROOT
BRANCH   1   5
ATOM      3  C   UNL     1       2.837  -0.558   1.139  0.00  0.00    +0.000 A 
ATOM      4  C   UNL     1       1.656  -0.792   0.497  0.00  0.00    +0.000 A 
ATOM      5  C   UNL     1       1.397  -0.443  -0.824  0.00  0.00    +0.000 A 
ATOM      6  C   UNL     1       2.423   0.259  -1.449  0.00  0.00    +0.000 A 
ATOM      7  C   UNL     1       3.656   0.457  -0.840  0.00  0.00    +0.000 A 
ATOM      8  C   UNL     1       3.808   0.162   0.503  0.00  0.00    +0.000 A 
BRANCH   3  10
ATOM      9  C   UNL     1       2.401  -0.450   3.507  0.00  0.00    +0.000 C 
ATOM     10  O   UNL     1       3.081  -1.068   2.420  0.00  0.00    +0.000 OA
ENDBRANCH   3  10
BRANCH   7  11
ATOM     11  O   UNL     1       4.759   0.964  -1.490  0.00  0.00    +0.000 OA
ATOM     12  C   UNL     1       5.070   0.713  -2.839  0.00  0.00    +0.000 C 
ENDBRANCH   7  11
BRANCH   8  13
ATOM     13  O   UNL     1       4.942   0.548   1.207  0.00  0.00    +0.000 OA
ATOM     14  C   UNL     1       5.065   1.904   1.608  0.00  0.00    +0.000 C 
ENDBRANCH   8  13
ENDBRANCH   1   5
BRANCH   2  15
ATOM     15  C   UNL     1      -1.453  -0.602  -0.989  0.00  0.00    +0.000 A 
ATOM     16  C   UNL     1      -1.415   0.303   0.040  0.00  0.00    +0.000 A 
ATOM     17  C   UNL     1      -2.583   0.849   0.559  0.00  0.00    +0.000 A 
ATOM     18  C   UNL     1      -3.827   0.357   0.188  0.00  0.00    +0.000 A 
ATOM     19  C   UNL     1      -3.873  -0.353  -1.004  0.00  0.00    +0.000 A 
ATOM     20  C   UNL     1      -2.692  -0.781  -1.595  0.00  0.00    +0.000 A 
BRANCH  17  21
ATOM     21  O   UNL     1      -2.586   1.892   1.473  0.00  0.00    +0.000 OA
ATOM     22  C   UNL     1      -2.683   3.253   1.059  0.00  0.00    +0.000 C 
ENDBRANCH  17  21
BRANCH  18  23
ATOM     23  O   UNL     1      -4.811   0.168   1.163  0.00  0.00    +0.000 OA
ATOM     24  C   UNL     1      -4.812  -1.009   1.968  0.00  0.00    +0.000 C 
ENDBRANCH  18  23
BRANCH  19  25
ATOM     25  O   UNL     1      -5.128  -0.664  -1.520  0.00  0.00    +0.000 OA
ATOM     26  C   UNL     1      -5.349  -1.953  -2.038  0.00  0.00    +0.000 C 
ENDBRANCH  19  25
ENDBRANCH   2  15
TORSDOF 8
