REMARK  Name = 
REMARK  2 active torsions:
REMARK  status: ('A' for Active; 'I' for Inactive)
REMARK    1  A    between atoms: C_4  and  C_5
REMARK    2  A    between atoms: C_6  and  C_7
REMARK                            x       y       z     vdW  Elec       q    Type
REMARK                         _______ _______ _______ _____ _____    ______ ____
ROOT
ATOM      1  C   UNL     1      -0.524  -0.435   2.028  0.00  0.00    +0.000 C 
ATOM      2  C   UNL     1       0.390   0.536   2.043  0.00  0.00    +0.000 C 
ENDROOT
BRANCH   1   6
ATOM      3  O   UNL     1      -3.224   2.081  -1.110  0.00  0.00    +0.000 OA
ATOM      4  C   UNL     1      -2.922   0.930  -0.377  0.00  0.00    +0.000 A 
ATOM      5  C   UNL     1      -1.646   0.674   0.102  0.00  0.00    +0.000 A 
ATOM      6  C   UNL     1      -1.335  -0.480   0.803  0.00  0.00    +0.000 A 
ATOM      7  C   UNL     1      -2.272  -1.503   0.728  0.00  0.00    +0.000 A 
ATOM      8  C   UNL     1      -3.481  -1.329   0.066  0.00  0.00    +0.000 A 
ATOM      9  O   UNL     1      -4.414  -2.351  -0.037  0.00  0.00    +0.000 OA
ATOM     10  C   UNL     1      -3.893  -0.059  -0.308  0.00  0.00    +0.000 A 
ATOM     11  O   UNL     1      -5.215   0.358  -0.187  0.00  0.00    +0.000 OA
ENDBRANCH   1   6
BRANCH   2  12
ATOM     12  C   UNL     1       1.317   0.542   0.904  0.00  0.00    +0.000 A 
ATOM     13  C   UNL     1       2.257   1.554   0.749  0.00  0.00    +0.000 A 
ATOM     14  C   UNL     1       3.549   1.296   0.307  0.00  0.00    +0.000 A 
ATOM     15  O   UNL     1       4.611   2.161   0.592  0.00  0.00    +0.000 OA
ATOM     16  C   UNL     1       3.918  -0.002  -0.024  0.00  0.00    +0.000 A 
ATOM     17  O   UNL     1       5.246  -0.411   0.002  0.00  0.00    +0.000 OA
ATOM     18  C   UNL     1       2.876  -0.886  -0.250  0.00  0.00    +0.000 A 
ATOM     19  O   UNL     1       3.164  -2.044  -0.977  0.00  0.00    +0.000 OA
ATOM     20  C   UNL     1       1.598  -0.632   0.216  0.00  0.00    +0.000 A 
ENDBRANCH   2  12
TORSDOF 2
