REMARK  Name = 
REMARK  5 active torsions:
REMARK  status: ('A' for Active; 'I' for Inactive)
REMARK    1  A    between atoms: O_2  and  C_3
REMARK    2  A    between atoms: C_6  and  C_7
REMARK    3  A    between atoms: C_8  and  C_9
REMARK    4  A    between atoms: C_8  and  C_11
REMARK    5  A    between atoms: C_15  and  O_16
REMARK                            x       y       z     vdW  Elec       q    Type
REMARK                         _______ _______ _______ _____ _____    ______ ____
ROOT
ATOM      1  C   UNL     1       1.182  -1.917  -0.367  0.00  0.00    +0.000 C 
ATOM      2  C   UNL     1      -0.032  -1.571  -0.729  0.00  0.00    +0.000 C 
ENDROOT
BRANCH   2   3
ATOM      3  C   UNL     1      -0.623  -0.444   0.008  0.00  0.00    +0.000 A 
ATOM      4  C   UNL     1      -1.287  -0.748   1.190  0.00  0.00    +0.000 A 
ATOM      5  C   UNL     1      -2.429  -0.096   1.597  0.00  0.00    +0.000 A 
ATOM      6  C   UNL     1      -3.042   0.796   0.749  0.00  0.00    +0.000 A 
ATOM      7  C   UNL     1      -2.349   1.222  -0.378  0.00  0.00    +0.000 A 
ATOM      8  C   UNL     1      -1.218   0.547  -0.764  0.00  0.00    +0.000 A 
ATOM      9  O   UNL     1      -4.361   0.953   1.114  0.00  0.00    +0.000 OA
ATOM     10  C   UNL     1      -4.623   0.176   2.255  0.00  0.00    +0.000 C 
ATOM     11  O   UNL     1      -3.359  -0.345   2.612  0.00  0.00    +0.000 OA
BRANCH   7  12
ATOM     12  O   UNL     1      -2.990   2.151  -1.202  0.00  0.00    +0.000 OA
ATOM     13  C   UNL     1      -4.354   2.480  -1.030  0.00  0.00    +0.000 C 
ENDBRANCH   7  12
ENDBRANCH   2   3
BRANCH   1  17
ATOM     14  C   UNL     1       4.561   0.515  -0.242  0.00  0.00    +0.000 A 
ATOM     15  C   UNL     1       3.330   1.154  -0.299  0.00  0.00    +0.000 A 
ATOM     16  C   UNL     1       2.232   0.342  -0.552  0.00  0.00    +0.000 A 
ATOM     17  C   UNL     1       2.184  -0.918   0.032  0.00  0.00    +0.000 A 
ATOM     18  C   UNL     1       3.419  -1.447   0.390  0.00  0.00    +0.000 A 
ATOM     19  C   UNL     1       4.616  -0.833   0.045  0.00  0.00    +0.000 A 
BRANCH  14  21
ATOM     20  C   UNL     1       5.998   2.490   0.116  0.00  0.00    +0.000 C 
ATOM     21  O   UNL     1       5.766   1.179  -0.392  0.00  0.00    +0.000 OA
ENDBRANCH  14  21
ENDBRANCH   1  17
BRANCH   2  22
ATOM     22  C   UNL     1      -0.868  -2.546  -1.390  0.00  0.00    +0.000 C 
ATOM     23  N   UNL     1      -1.754  -3.139  -1.858  0.00  0.00    +0.000 NA
ENDBRANCH   2  22
TORSDOF 5
