REMARK  Name = 
REMARK  5 active torsions:
REMARK  status: ('A' for Active; 'I' for Inactive)
REMARK    1  A    between atoms: O_2  and  C_3
REMARK    2  A    between atoms: C_6  and  C_7
REMARK    3  A    between atoms: C_7  and  C_8
REMARK    4  A    between atoms: C_10  and  C_11
REMARK    5  A    between atoms: C_15  and  O_16
REMARK                            x       y       z     vdW  Elec       q    Type
REMARK                         _______ _______ _______ _____ _____    ______ ____
ROOT
ATOM      1  C   UNL     1       1.085  -1.959  -0.247  0.00  0.00    +0.000 C 
ATOM      2  C   UNL     1       0.125  -1.601  -1.101  0.00  0.00    +0.000 C 
ENDROOT
BRANCH   2   3
ATOM      3  C   UNL     1      -0.822  -0.603  -0.584  0.00  0.00    +0.000 A 
ATOM      4  C   UNL     1      -1.217   0.357  -1.510  0.00  0.00    +0.000 A 
ATOM      5  C   UNL     1      -2.154   1.273  -1.054  0.00  0.00    +0.000 A 
ATOM      6  C   UNL     1      -3.192   0.752  -0.292  0.00  0.00    +0.000 A 
ATOM      7  C   UNL     1      -3.071  -0.485   0.326  0.00  0.00    +0.000 A 
ATOM      8  C   UNL     1      -1.849  -1.105   0.209  0.00  0.00    +0.000 A 
ATOM      9  O   UNL     1      -4.133   1.777  -0.157  0.00  0.00    +0.000 OA
ATOM     10  C   UNL     1      -3.534   3.028  -0.484  0.00  0.00    +0.000 C 
ATOM     11  O   UNL     1      -2.431   2.609  -1.285  0.00  0.00    +0.000 OA
BRANCH   7  12
ATOM     12  O   UNL     1      -4.233  -1.156   0.721  0.00  0.00    +0.000 OA
ATOM     13  C   UNL     1      -4.543  -1.406   2.077  0.00  0.00    +0.000 C 
ENDBRANCH   7  12
ENDBRANCH   2   3
BRANCH   1  17
ATOM     14  C   UNL     1       3.712   1.135   0.479  0.00  0.00    +0.000 A 
ATOM     15  C   UNL     1       2.355   1.439   0.466  0.00  0.00    +0.000 A 
ATOM     16  C   UNL     1       1.416   0.415   0.469  0.00  0.00    +0.000 A 
ATOM     17  C   UNL     1       1.781  -0.921   0.525  0.00  0.00    +0.000 A 
ATOM     18  C   UNL     1       3.088  -1.141   0.946  0.00  0.00    +0.000 A 
ATOM     19  C   UNL     1       4.007  -0.101   1.044  0.00  0.00    +0.000 A 
BRANCH  14  21
ATOM     20  C   UNL     1       4.774   3.198  -0.347  0.00  0.00    +0.000 C 
ATOM     21  O   UNL     1       4.622   1.802  -0.350  0.00  0.00    +0.000 OA
ENDBRANCH  14  21
ENDBRANCH   1  17
BRANCH   1  22
ATOM     22  C   UNL     1       1.774  -3.186  -0.582  0.00  0.00    +0.000 C 
ATOM     23  N   UNL     1       2.440  -4.122  -0.789  0.00  0.00    +0.000 NA
ENDBRANCH   1  22
TORSDOF 5
