REMARK  Name = 
REMARK  7 active torsions:
REMARK  status: ('A' for Active; 'I' for Inactive)
REMARK    1  A    between atoms: O_2  and  C_3
REMARK    2  A    between atoms: C_5  and  C_6
REMARK    3  A    between atoms: C_7  and  C_8
REMARK    4  A    between atoms: C_7  and  C_10
REMARK    5  A    between atoms: C_12  and  O_13
REMARK    6  A    between atoms: C_15  and  O_16
REMARK    7  A    between atoms: C_18  and  O_19
REMARK                            x       y       z     vdW  Elec       q    Type
REMARK                         _______ _______ _______ _____ _____    ______ ____
ROOT
ATOM      1  C   UNL     1      -0.766  -1.967   0.341  0.00  0.00    +0.000 C 
ATOM      2  C   UNL     1       0.290  -1.654  -0.408  0.00  0.00    +0.000 C 
ENDROOT
BRANCH   1   5
ATOM      3  C   UNL     1      -2.990   0.878  -0.403  0.00  0.00    +0.000 A 
ATOM      4  C   UNL     1      -1.804   0.257  -0.130  0.00  0.00    +0.000 A 
ATOM      5  C   UNL     1      -1.675  -0.862   0.674  0.00  0.00    +0.000 A 
ATOM      6  C   UNL     1      -2.843  -1.227   1.337  0.00  0.00    +0.000 A 
ATOM      7  C   UNL     1      -4.048  -0.572   1.115  0.00  0.00    +0.000 A 
ATOM      8  C   UNL     1      -4.165   0.312   0.050  0.00  0.00    +0.000 A 
ATOM      9  O   UNL     1      -5.469   0.233  -0.447  0.00  0.00    +0.000 OA
ATOM     10  C   UNL     1      -6.239  -0.608   0.391  0.00  0.00    +0.000 C 
ATOM     11  O   UNL     1      -5.373  -0.814   1.496  0.00  0.00    +0.000 OA
BRANCH   3  13
ATOM     12  C   UNL     1      -3.565   3.116  -1.255  0.00  0.00    +0.000 C 
ATOM     13  O   UNL     1      -3.066   1.803  -1.447  0.00  0.00    +0.000 OA
ENDBRANCH   3  13
ENDBRANCH   1   5
BRANCH   2  14
ATOM     14  C   UNL     1       1.106  -0.544   0.106  0.00  0.00    +0.000 A 
ATOM     15  C   UNL     1       2.175  -0.899   0.923  0.00  0.00    +0.000 A 
ATOM     16  C   UNL     1       3.353  -0.164   0.954  0.00  0.00    +0.000 A 
ATOM     17  C   UNL     1       3.491   0.911   0.083  0.00  0.00    +0.000 A 
ATOM     18  C   UNL     1       2.300   1.420  -0.415  0.00  0.00    +0.000 A 
ATOM     19  C   UNL     1       1.385   0.456  -0.821  0.00  0.00    +0.000 A 
BRANCH  16  20
ATOM     20  O   UNL     1       4.562  -0.711   1.396  0.00  0.00    +0.000 OA
ATOM     21  C   UNL     1       4.989  -1.896   0.728  0.00  0.00    +0.000 C 
ENDBRANCH  16  20
BRANCH  17  22
ATOM     22  O   UNL     1       4.710   1.563  -0.080  0.00  0.00    +0.000 OA
ATOM     23  C   UNL     1       5.793   0.976  -0.756  0.00  0.00    +0.000 C 
ENDBRANCH  17  22
BRANCH  18  24
ATOM     24  O   UNL     1       2.300   2.681  -0.999  0.00  0.00    +0.000 OA
ATOM     25  C   UNL     1       3.160   3.677  -0.501  0.00  0.00    +0.000 C 
ENDBRANCH  18  24
ENDBRANCH   2  14
BRANCH   2  26
ATOM     26  C   UNL     1       0.885  -2.736  -1.160  0.00  0.00    +0.000 C 
ATOM     27  N   UNL     1       1.503  -3.631  -1.587  0.00  0.00    +0.000 NA
ENDBRANCH   2  26
TORSDOF 7
