REMARK  Name = 
REMARK  7 active torsions:
REMARK  status: ('A' for Active; 'I' for Inactive)
REMARK    1  A    between atoms: O_2  and  C_3
REMARK    2  A    between atoms: C_5  and  C_6
REMARK    3  A    between atoms: C_6  and  C_7
REMARK    4  A    between atoms: C_9  and  C_10
REMARK    5  A    between atoms: C_12  and  O_13
REMARK    6  A    between atoms: C_15  and  O_16
REMARK    7  A    between atoms: C_18  and  O_19
REMARK                            x       y       z     vdW  Elec       q    Type
REMARK                         _______ _______ _______ _____ _____    ______ ____
ROOT
ATOM      1  C   UNL     1      -0.762  -0.926  -1.369  0.00  0.00    +0.000 C 
ATOM      2  C   UNL     1       0.326  -0.268  -1.694  0.00  0.00    +0.000 C 
ENDROOT
BRANCH   1   5
ATOM      3  C   UNL     1      -3.616  -0.695   0.950  0.00  0.00    +0.000 A 
ATOM      4  C   UNL     1      -2.495  -1.221   0.329  0.00  0.00    +0.000 A 
ATOM      5  C   UNL     1      -1.492  -0.418  -0.200  0.00  0.00    +0.000 A 
ATOM      6  C   UNL     1      -1.726   0.950  -0.144  0.00  0.00    +0.000 A 
ATOM      7  C   UNL     1      -2.708   1.510   0.634  0.00  0.00    +0.000 A 
ATOM      8  C   UNL     1      -3.752   0.684   1.029  0.00  0.00    +0.000 A 
ATOM      9  O   UNL     1      -4.707   1.452   1.687  0.00  0.00    +0.000 OA
ATOM     10  C   UNL     1      -4.347   2.815   1.591  0.00  0.00    +0.000 C 
ATOM     11  O   UNL     1      -3.191   2.796   0.767  0.00  0.00    +0.000 OA
BRANCH   3  13
ATOM     12  C   UNL     1      -5.042  -2.569   0.253  0.00  0.00    +0.000 C 
ATOM     13  O   UNL     1      -4.796  -1.435   1.078  0.00  0.00    +0.000 OA
ENDBRANCH   3  13
ENDBRANCH   1   5
BRANCH   2  14
ATOM     14  C   UNL     1       1.241   0.251  -0.670  0.00  0.00    +0.000 A 
ATOM     15  C   UNL     1       1.541  -0.467   0.481  0.00  0.00    +0.000 A 
ATOM     16  C   UNL     1       2.758  -0.266   1.122  0.00  0.00    +0.000 A 
ATOM     17  C   UNL     1       3.847   0.219   0.407  0.00  0.00    +0.000 A 
ATOM     18  C   UNL     1       3.540   1.054  -0.660  0.00  0.00    +0.000 A 
ATOM     19  C   UNL     1       2.241   1.093  -1.141  0.00  0.00    +0.000 A 
BRANCH  16  20
ATOM     20  O   UNL     1       3.039  -0.780   2.380  0.00  0.00    +0.000 OA
ATOM     21  C   UNL     1       3.882  -1.883   2.609  0.00  0.00    +0.000 C 
ENDBRANCH  16  20
BRANCH  17  22
ATOM     22  O   UNL     1       5.112  -0.369   0.501  0.00  0.00    +0.000 OA
ATOM     23  C   UNL     1       5.490  -1.491  -0.258  0.00  0.00    +0.000 C 
ENDBRANCH  17  22
BRANCH  18  24
ATOM     24  O   UNL     1       4.577   1.781  -1.253  0.00  0.00    +0.000 OA
ATOM     25  C   UNL     1       4.591   1.793  -2.674  0.00  0.00    +0.000 C 
ENDBRANCH  18  24
ENDBRANCH   2  14
BRANCH   1  26
ATOM     26  C   UNL     1      -1.431  -1.620  -2.446  0.00  0.00    +0.000 C 
ATOM     27  N   UNL     1      -2.116  -1.989  -3.312  0.00  0.00    +0.000 NA
ENDBRANCH   1  26
TORSDOF 7
