REMARK  Name = 
REMARK  2 active torsions:
REMARK  status: ('A' for Active; 'I' for Inactive)
REMARK    1  A    between atoms: C_5  and  C_6
REMARK    2  A    between atoms: C_7  and  C_8
REMARK                            x       y       z     vdW  Elec       q    Type
REMARK                         _______ _______ _______ _____ _____    ______ ____
ROOT
ATOM      1  C   UNL     1      -0.543   1.275  -0.088  0.00  0.00    +0.000 C 
ATOM      2  C   UNL     1       0.452   0.638  -0.655  0.00  0.00    +0.000 C 
ENDROOT
BRANCH   1   7
ATOM      3  O   UNL     1      -5.185  -1.620   0.368  0.00  0.00    +0.000 OA
ATOM      4  C   UNL     1      -4.258  -0.648   0.018  0.00  0.00    +0.000 A 
ATOM      5  C   UNL     1      -3.336  -0.952  -0.954  0.00  0.00    +0.000 A 
ATOM      6  C   UNL     1      -2.344  -0.019  -1.235  0.00  0.00    +0.000 A 
ATOM      7  C   UNL     1      -1.952   0.939  -0.314  0.00  0.00    +0.000 A 
ATOM      8  C   UNL     1      -2.820   1.134   0.751  0.00  0.00    +0.000 A 
ATOM      9  O   UNL     1      -2.663   2.281   1.510  0.00  0.00    +0.000 OA
ATOM     10  C   UNL     1      -3.864   0.251   1.001  0.00  0.00    +0.000 A 
ENDBRANCH   1   7
BRANCH   2  11
ATOM     11  C   UNL     1       1.669   0.229   0.052  0.00  0.00    +0.000 A 
ATOM     12  C   UNL     1       2.772   1.065   0.178  0.00  0.00    +0.000 A 
ATOM     13  C   UNL     1       4.060   0.585  -0.004  0.00  0.00    +0.000 A 
ATOM     14  O   UNL     1       5.119   1.403  -0.395  0.00  0.00    +0.000 OA
ATOM     15  C   UNL     1       4.297  -0.781  -0.101  0.00  0.00    +0.000 A 
ATOM     16  C   UNL     1       3.216  -1.645   0.020  0.00  0.00    +0.000 A 
ATOM     17  O   UNL     1       3.450  -2.997  -0.248  0.00  0.00    +0.000 OA
ATOM     18  C   UNL     1       1.930  -1.136   0.061  0.00  0.00    +0.000 A 
ENDBRANCH   2  11
TORSDOF 2
