REMARK  Name = 
REMARK  5 active torsions:
REMARK  status: ('A' for Active; 'I' for Inactive)
REMARK    1  A    between atoms: C_2  and  C_3
REMARK    2  A    between atoms: C_5  and  O_6
REMARK    3  A    between atoms: O_6  and  C_7
REMARK    4  A    between atoms: C_12  and  C_13
REMARK    5  A    between atoms: C_14  and  C_15
REMARK                            x       y       z     vdW  Elec       q    Type
REMARK                         _______ _______ _______ _____ _____    ______ ____
ROOT
ATOM      1  C   UNL     1       0.621   0.539   0.698  0.00  0.00    +0.000 A 
ATOM      2  C   UNL     1       1.217   1.776   0.751  0.00  0.00    +0.000 A 
ATOM      3  C   UNL     1       0.548   2.876   0.234  0.00  0.00    +0.000 A 
ATOM      4  O   UNL     1       1.202   4.049  -0.062  0.00  0.00    +0.000 OA
ATOM      5  C   UNL     1      -0.826   2.839   0.032  0.00  0.00    +0.000 A 
ATOM      6  C   UNL     1      -1.486   1.689   0.363  0.00  0.00    +0.000 A 
ATOM      7  C   UNL     1      -0.733   0.532   0.556  0.00  0.00    +0.000 A 
ENDROOT
BRANCH   6   8
ATOM      8  C   UNL     1      -2.939   1.623   0.567  0.00  0.00    +0.000 C 
ATOM      9  C   UNL     1      -3.520   0.447   0.713  0.00  0.00    +0.000 C 
BRANCH   9  10
ATOM     10  C   UNL     1      -4.787   0.152   0.048  0.00  0.00    +0.000 A 
ATOM     11  C   UNL     1      -4.771  -0.619  -1.095  0.00  0.00    +0.000 A 
ATOM     12  C   UNL     1      -5.818  -1.484  -1.362  0.00  0.00    +0.000 A 
ATOM     13  C   UNL     1      -6.926  -1.452  -0.522  0.00  0.00    +0.000 A 
ATOM     14  O   UNL     1      -7.719  -2.584  -0.391  0.00  0.00    +0.000 OA
ATOM     15  C   UNL     1      -7.050  -0.375   0.342  0.00  0.00    +0.000 A 
ATOM     16  C   UNL     1      -5.977   0.427   0.696  0.00  0.00    +0.000 A 
ENDBRANCH   9  10
ENDBRANCH   6   8
BRANCH   1  17
ATOM     17  O   UNL     1       1.290  -0.649   0.696  0.00  0.00    +0.000 OA
BRANCH  17  20
ATOM     18  C   UNL     1       4.443  -0.313  -0.865  0.00  0.00    +0.000 C 
ATOM     19  O   UNL     1       3.070   0.080  -0.426  0.00  0.00    +0.000 OA
ATOM     20  C   UNL     1       2.827  -0.589   0.911  0.00  0.00    +0.000 C 
ATOM     21  C   UNL     1       2.902  -2.245   0.430  0.00  0.00    +0.000 C 
ATOM     22  O   UNL     1       2.584  -2.030  -1.012  0.00  0.00    +0.000 OA
ATOM     23  C   UNL     1       4.581  -2.328   0.163  0.00  0.00    +0.000 C 
ATOM     24  O   UNL     1       4.839  -2.910   1.522  0.00  0.00    +0.000 OA
ATOM     25  C   UNL     1       4.931  -0.760   0.714  0.00  0.00    +0.000 C 
ATOM     26  O   UNL     1       6.354  -0.919   0.257  0.00  0.00    +0.000 OA
BRANCH  18  28
ATOM     27  O   UNL     1       6.044   1.040  -1.458  0.00  0.00    +0.000 OA
ATOM     28  C   UNL     1       5.096   1.187  -0.667  0.00  0.00    +0.000 C 
ENDBRANCH  18  28
ENDBRANCH  17  20
ENDBRANCH   1  17
TORSDOF 5
