REMARK  Name = 
REMARK  5 active torsions:
REMARK  status: ('A' for Active; 'I' for Inactive)
REMARK    1  A    between atoms: C_2  and  C_3
REMARK    2  A    between atoms: C_5  and  O_6
REMARK    3  A    between atoms: O_6  and  C_7
REMARK    4  A    between atoms: C_12  and  C_13
REMARK    5  A    between atoms: C_14  and  C_15
REMARK                            x       y       z     vdW  Elec       q    Type
REMARK                         _______ _______ _______ _____ _____    ______ ____
ROOT
ATOM      1  C   UNL     1      -0.509  -0.076  -0.405  0.00  0.00    +0.000 A 
ATOM      2  C   UNL     1      -0.229   0.356   0.876  0.00  0.00    +0.000 A 
ATOM      3  C   UNL     1       0.698   1.370   1.090  0.00  0.00    +0.000 A 
ATOM      4  O   UNL     1       0.914   1.965   2.301  0.00  0.00    +0.000 OA
ATOM      5  C   UNL     1       1.519   1.764   0.039  0.00  0.00    +0.000 A 
ATOM      6  C   UNL     1       1.506   0.997  -1.094  0.00  0.00    +0.000 A 
ATOM      7  C   UNL     1       0.432   0.194  -1.394  0.00  0.00    +0.000 A 
ENDROOT
BRANCH   6   8
ATOM      8  C   UNL     1       2.610   1.028  -2.041  0.00  0.00    +0.000 C 
ATOM      9  C   UNL     1       3.309  -0.068  -1.969  0.00  0.00    +0.000 C 
BRANCH   9  10
ATOM     10  C   UNL     1       3.735  -0.788  -0.805  0.00  0.00    +0.000 A 
ATOM     11  C   UNL     1       4.578  -1.867  -1.092  0.00  0.00    +0.000 A 
ATOM     12  C   UNL     1       5.793  -2.034  -0.433  0.00  0.00    +0.000 A 
ATOM     13  C   UNL     1       6.131  -1.206   0.632  0.00  0.00    +0.000 A 
ATOM     14  O   UNL     1       7.431  -0.756   0.853  0.00  0.00    +0.000 OA
ATOM     15  C   UNL     1       5.052  -0.561   1.226  0.00  0.00    +0.000 A 
ATOM     16  C   UNL     1       3.925  -0.348   0.465  0.00  0.00    +0.000 A 
ENDBRANCH   9  10
ENDBRANCH   6   8
BRANCH   1  17
ATOM     17  O   UNL     1      -1.769  -0.325  -0.862  0.00  0.00    +0.000 OA
BRANCH  17  20
ATOM     18  C   UNL     1      -4.508   0.907   0.671  0.00  0.00    +0.000 C 
ATOM     19  O   UNL     1      -3.022   0.635   0.682  0.00  0.00    +0.000 OA
ATOM     20  C   UNL     1      -2.705   0.903  -0.786  0.00  0.00    +0.000 C 
ATOM     21  C   UNL     1      -4.106   0.069  -1.363  0.00  0.00    +0.000 C 
ATOM     22  O   UNL     1      -3.400  -0.532  -2.534  0.00  0.00    +0.000 OA
ATOM     23  C   UNL     1      -3.842  -1.290  -0.370  0.00  0.00    +0.000 C 
ATOM     24  O   UNL     1      -4.851  -2.099  -1.122  0.00  0.00    +0.000 OA
ATOM     25  C   UNL     1      -4.997  -0.742   0.762  0.00  0.00    +0.000 C 
ATOM     26  O   UNL     1      -4.097  -1.126   1.897  0.00  0.00    +0.000 OA
BRANCH  18  28
ATOM     27  O   UNL     1      -5.034   2.464   2.432  0.00  0.00    +0.000 OA
ATOM     28  C   UNL     1      -4.563   1.164   2.286  0.00  0.00    +0.000 C 
ENDBRANCH  18  28
ENDBRANCH  17  20
ENDBRANCH   1  17
TORSDOF 5
