REMARK  Name = 
REMARK  5 active torsions:
REMARK  status: ('A' for Active; 'I' for Inactive)
REMARK    1  A    between atoms: C_2  and  C_3
REMARK    2  A    between atoms: C_5  and  O_6
REMARK    3  A    between atoms: O_6  and  C_7
REMARK    4  A    between atoms: C_12  and  C_13
REMARK    5  A    between atoms: C_14  and  C_15
REMARK                            x       y       z     vdW  Elec       q    Type
REMARK                         _______ _______ _______ _____ _____    ______ ____
ROOT
ATOM      1  C   UNL     1       1.381  -1.622   0.332  0.00  0.00    +0.000 A 
ATOM      2  C   UNL     1       0.972  -2.344   1.447  0.00  0.00    +0.000 A 
ATOM      3  C   UNL     1      -0.386  -2.550   1.663  0.00  0.00    +0.000 A 
ATOM      4  O   UNL     1      -0.826  -3.620   2.447  0.00  0.00    +0.000 OA
ATOM      5  C   UNL     1      -1.317  -2.062   0.752  0.00  0.00    +0.000 A 
ATOM      6  C   UNL     1      -0.950  -1.163  -0.241  0.00  0.00    +0.000 A 
ATOM      7  C   UNL     1       0.405  -0.889  -0.294  0.00  0.00    +0.000 A 
ENDROOT
BRANCH   6   8
ATOM      8  C   UNL     1      -1.625  -1.111  -1.542  0.00  0.00    +0.000 C 
ATOM      9  C   UNL     1      -2.843  -0.728  -1.740  0.00  0.00    +0.000 C 
BRANCH   9  10
ATOM     10  C   UNL     1      -3.721  -0.547  -0.573  0.00  0.00    +0.000 A 
ATOM     11  C   UNL     1      -4.992  -1.088  -0.747  0.00  0.00    +0.000 A 
ATOM     12  C   UNL     1      -6.152  -0.389  -0.444  0.00  0.00    +0.000 A 
ATOM     13  C   UNL     1      -6.068   0.875   0.113  0.00  0.00    +0.000 A 
ATOM     14  O   UNL     1      -7.226   1.618   0.183  0.00  0.00    +0.000 OA
ATOM     15  C   UNL     1      -4.838   1.317   0.520  0.00  0.00    +0.000 A 
ATOM     16  C   UNL     1      -3.702   0.639   0.153  0.00  0.00    +0.000 A 
ENDBRANCH   9  10
ENDBRANCH   6   8
BRANCH   1  17
ATOM     17  O   UNL     1       2.732  -1.306   0.148  0.00  0.00    +0.000 OA
BRANCH  17  20
ATOM     18  C   UNL     1       2.239   2.212   0.085  0.00  0.00    +0.000 C 
ATOM     19  O   UNL     1       2.274   0.765  -0.309  0.00  0.00    +0.000 OA
ATOM     20  C   UNL     1       2.950   0.058   0.839  0.00  0.00    +0.000 C 
ATOM     21  C   UNL     1       4.580   0.318   0.326  0.00  0.00    +0.000 C 
ATOM     22  O   UNL     1       4.804  -0.960  -0.410  0.00  0.00    +0.000 OA
ATOM     23  C   UNL     1       4.197   1.135  -1.115  0.00  0.00    +0.000 C 
ATOM     24  O   UNL     1       5.626   1.532  -1.296  0.00  0.00    +0.000 OA
ATOM     25  C   UNL     1       3.886   2.561  -0.245  0.00  0.00    +0.000 C 
ATOM     26  O   UNL     1       3.503   3.283  -1.499  0.00  0.00    +0.000 OA
BRANCH  18  28
ATOM     27  O   UNL     1       2.530   2.041   2.096  0.00  0.00    +0.000 OA
ATOM     28  C   UNL     1       2.567   2.029   1.684  0.00  0.00    +0.000 C 
ENDBRANCH  18  28
ENDBRANCH  17  20
ENDBRANCH   1  17
TORSDOF 5
