MODEL 1
REMARK VINA RESULT:      -7.6      0.000      0.000
REMARK  Name = 41774
REMARK                            x       y       z     vdW  Elec       q    Type
REMARK                         _______ _______ _______ _____ _____    ______ ____
ROOT
ATOM      1  O   LIG    1       -6.282  32.006  61.208  0.00  0.00    -0.340 OA
ENDROOT
BRANCH   1   2
ATOM      2  C   LIG    1       -7.605  31.483  61.312  0.00  0.00    +0.282 C 
ATOM      3  C   LIG    1       -7.782  30.396  60.251  0.00  0.00    +0.200 C 
ATOM      4  C   LIG    1       -9.212  29.850  60.258  0.00  0.00    +0.167 C 
ATOM      5  C   LIG    1      -10.270  30.970  60.258  0.00  0.00    +0.114 C 
ATOM      6  C   LIG    1       -9.932  32.109  61.244  0.00  0.00    +0.138 C 
ATOM      7  C   LIG    1      -10.294  31.786  62.695  0.00  0.00    +0.039 C 
ATOM     29  O   LIG    1       -8.565  32.524  61.136  0.00  0.00    -0.344 OA
BRANCH   5   8
ATOM      8  N   LIG    1      -10.375  31.537  58.906  0.00  0.00    -0.300 NA
ATOM      9  H   LIG    1       -9.825  30.982  58.252  0.00  0.00    +0.123 HD
BRANCH   8  10
ATOM     10  C   LIG    1      -11.776  31.597  58.479  0.00  0.00    +0.109 C 
ATOM     11  C   LIG    1      -11.978  32.632  57.403  0.00  0.00    -0.002 C 
ATOM     12  C   LIG    1      -12.793  32.465  56.345  0.00  0.00    -0.016 C 
ATOM     16  C   LIG    1      -13.621  31.213  56.150  0.00  0.00    +0.173 C 
ATOM     17  C   LIG    1      -13.650  30.282  57.376  0.00  0.00    +0.177 C 
ATOM     22  C   LIG    1      -12.287  30.196  58.076  0.00  0.00    +0.166 C 
BRANCH  17  18
ATOM     18  O   LIG    1      -14.627  30.773  58.292  0.00  0.00    -0.386 OA
ATOM     19  H   LIG    1      -15.379  31.104  57.771  0.00  0.00    +0.210 HD
ENDBRANCH  17  18
BRANCH  16  20
ATOM     20  O   LIG    1      -13.086  30.512  55.029  0.00  0.00    -0.385 OA
ATOM     21  H   LIG    1      -13.733  29.833  54.771  0.00  0.00    +0.210 HD
ENDBRANCH  16  20
BRANCH  22  23
ATOM     23  O   LIG    1      -11.357  29.528  57.224  0.00  0.00    -0.387 OA
ATOM     24  H   LIG    1      -10.595  30.120  57.099  0.00  0.00    +0.210 HD
ENDBRANCH  22  23
BRANCH  12  13
ATOM     13  C   LIG    1      -12.945  33.533  55.300  0.00  0.00    +0.189 C 
BRANCH  13  14
ATOM     14  O   LIG    1      -12.072  33.266  54.219  0.00  0.00    -0.391 OA
ATOM     15  H   LIG    1      -11.179  33.163  54.590  0.00  0.00    +0.210 HD
ENDBRANCH  13  14
ENDBRANCH  12  13
ENDBRANCH   8  10
ENDBRANCH   5   8
BRANCH   4  25
ATOM     25  O   LIG    1       -9.374  29.034  61.419  0.00  0.00    -0.387 OA
ATOM     26  H   LIG    1       -8.602  29.183  61.991  0.00  0.00    +0.210 HD
ENDBRANCH   4  25
BRANCH   3  27
ATOM     27  O   LIG    1       -7.482  30.951  58.971  0.00  0.00    -0.384 OA
ATOM     28  H   LIG    1       -8.325  31.089  58.507  0.00  0.00    +0.210 HD
ENDBRANCH   3  27
ENDBRANCH   1   2
BRANCH   1  30
ATOM     30  C   LIG    1       -5.933  32.778  62.361  0.00  0.00    +0.183 C 
ATOM     31  C   LIG    1       -4.532  33.374  62.139  0.00  0.00    +0.178 C 
ATOM     35  O   LIG    1       -3.510  32.375  62.245  0.00  0.00    -0.341 OA
ATOM     36  C   LIG    1       -3.503  31.650  63.472  0.00  0.00    +0.282 C 
ATOM     37  C   LIG    1       -4.824  30.899  63.660  0.00  0.00    +0.201 C 
ATOM     56  C   LIG    1       -6.019  31.852  63.582  0.00  0.00    +0.179 C 
BRANCH  37  38
ATOM     38  O   LIG    1       -4.950  29.893  62.654  0.00  0.00    -0.384 OA
ATOM     39  H   LIG    1       -4.084  29.461  62.562  0.00  0.00    +0.210 HD
ENDBRANCH  37  38
BRANCH  56  57
ATOM     57  O   LIG    1       -6.059  32.624  64.777  0.00  0.00    -0.386 OA
ATOM     58  H   LIG    1       -6.714  33.330  64.649  0.00  0.00    +0.210 HD
ENDBRANCH  56  57
BRANCH  31  32
ATOM     32  C   LIG    1       -4.226  34.574  63.035  0.00  0.00    +0.190 C 
BRANCH  32  33
ATOM     33  O   LIG    1       -2.875  34.948  62.839  0.00  0.00    -0.392 OA
ATOM     34  H   LIG    1       -2.362  34.128  62.737  0.00  0.00    +0.210 HD
ENDBRANCH  32  33
ENDBRANCH  31  32
BRANCH  36  40
ATOM     40  O   LIG    1       -2.439  30.699  63.481  0.00  0.00    -0.340 OA
BRANCH  40  41
ATOM     41  C   LIG    1       -1.421  31.051  62.547  0.00  0.00    +0.183 C 
ATOM     42  C   LIG    1       -0.910  29.800  61.820  0.00  0.00    +0.178 C 
ATOM     46  O   LIG    1        0.207  30.117  60.982  0.00  0.00    -0.341 OA
ATOM     47  C   LIG    1        1.319  30.652  61.701  0.00  0.00    +0.279 C 
ATOM     48  C   LIG    1        0.925  31.945  62.415  0.00  0.00    +0.201 C 
ATOM     53  C   LIG    1       -0.293  31.743  63.315  0.00  0.00    +0.179 C 
BRANCH  48  49
ATOM     49  O   LIG    1        2.012  32.432  63.193  0.00  0.00    -0.384 OA
ATOM     50  H   LIG    1        2.171  31.792  63.907  0.00  0.00    +0.210 HD
ENDBRANCH  48  49
BRANCH  47  51
ATOM     51  O   LIG    1        1.902  29.695  62.584  0.00  0.00    -0.365 OA
ATOM     52  H   LIG    1        1.267  29.543  63.304  0.00  0.00    +0.213 HD
ENDBRANCH  47  51
BRANCH  53  54
ATOM     54  O   LIG    1       -0.767  33.019  63.754  0.00  0.00    -0.386 OA
ATOM     55  H   LIG    1       -0.811  33.609  62.982  0.00  0.00    +0.210 HD
ENDBRANCH  53  54
BRANCH  42  43
ATOM     43  C   LIG    1       -1.980  29.182  60.923  0.00  0.00    +0.190 C 
BRANCH  43  44
ATOM     44  O   LIG    1       -2.768  30.224  60.379  0.00  0.00    -0.392 OA
ATOM     45  H   LIG    1       -2.780  30.945  61.032  0.00  0.00    +0.210 HD
ENDBRANCH  43  44
ENDBRANCH  42  43
ENDBRANCH  40  41
ENDBRANCH  36  40
ENDBRANCH   1  30
TORSDOF 22
ENDMDL
MODEL 2
REMARK VINA RESULT:      -7.4      1.222      1.955
REMARK  Name = 41774
REMARK                            x       y       z     vdW  Elec       q    Type
REMARK                         _______ _______ _______ _____ _____    ______ ____
ROOT
ATOM      1  O   LIG    1       -6.701  31.076  61.021  0.00  0.00    -0.340 OA
ENDROOT
BRANCH   1   2
ATOM      2  C   LIG    1       -8.054  30.810  60.658  0.00  0.00    +0.282 C 
ATOM      3  C   LIG    1       -8.099  30.470  59.167  0.00  0.00    +0.200 C 
ATOM      4  C   LIG    1       -9.540  30.252  58.697  0.00  0.00    +0.167 C 
ATOM      5  C   LIG    1      -10.487  31.376  59.161  0.00  0.00    +0.114 C 
ATOM      6  C   LIG    1      -10.266  31.770  60.638  0.00  0.00    +0.138 C 
ATOM      7  C   LIG    1      -10.934  30.816  61.629  0.00  0.00    +0.039 C 
ATOM     29  O   LIG    1       -8.877  31.940  60.945  0.00  0.00    -0.344 OA
BRANCH   5   8
ATOM      8  N   LIG    1      -10.276  32.565  58.322  0.00  0.00    -0.300 NA
ATOM      9  H   LIG    1       -9.278  32.719  58.182  0.00  0.00    +0.123 HD
BRANCH   8  10
ATOM     10  C   LIG    1      -10.960  32.416  57.035  0.00  0.00    +0.109 C 
ATOM     11  C   LIG    1      -11.518  31.028  56.866  0.00  0.00    -0.002 C 
ATOM     12  C   LIG    1      -12.709  30.761  56.299  0.00  0.00    -0.016 C 
ATOM     16  C   LIG    1      -13.601  31.849  55.742  0.00  0.00    +0.173 C 
ATOM     17  C   LIG    1      -12.924  33.227  55.642  0.00  0.00    +0.177 C 
ATOM     22  C   LIG    1      -12.021  33.523  56.846  0.00  0.00    +0.166 C 
BRANCH  17  18
ATOM     18  O   LIG    1      -12.149  33.264  54.444  0.00  0.00    -0.386 OA
ATOM     19  H   LIG    1      -11.901  34.190  54.281  0.00  0.00    +0.210 HD
ENDBRANCH  17  18
BRANCH  16  20
ATOM     20  O   LIG    1      -14.750  31.940  56.583  0.00  0.00    -0.385 OA
ATOM     21  H   LIG    1      -14.823  32.863  56.881  0.00  0.00    +0.210 HD
ENDBRANCH  16  20
BRANCH  22  23
ATOM     23  O   LIG    1      -12.825  33.678  58.016  0.00  0.00    -0.387 OA
ATOM     24  H   LIG    1      -12.826  34.622  58.248  0.00  0.00    +0.210 HD
ENDBRANCH  22  23
BRANCH  12  13
ATOM     13  C   LIG    1      -13.214  29.353  56.168  0.00  0.00    +0.189 C 
BRANCH  13  14
ATOM     14  O   LIG    1      -12.539  28.704  55.108  0.00  0.00    -0.391 OA
ATOM     15  H   LIG    1      -12.130  27.902  55.475  0.00  0.00    +0.210 HD
ENDBRANCH  13  14
ENDBRANCH  12  13
ENDBRANCH   8  10
ENDBRANCH   5   8
BRANCH   4  25
ATOM     25  O   LIG    1       -9.993  28.999  59.208  0.00  0.00    -0.387 OA
ATOM     26  H   LIG    1      -10.772  28.735  58.688  0.00  0.00    +0.210 HD
ENDBRANCH   4  25
BRANCH   3  27
ATOM     27  O   LIG    1       -7.507  31.542  58.434  0.00  0.00    -0.384 OA
ATOM     28  H   LIG    1       -7.046  31.155  57.671  0.00  0.00    +0.210 HD
ENDBRANCH   3  27
ENDBRANCH   1   2
BRANCH   1  30
ATOM     30  C   LIG    1       -6.624  31.819  62.242  0.00  0.00    +0.183 C 
ATOM     31  C   LIG    1       -5.421  32.774  62.153  0.00  0.00    +0.178 C 
ATOM     35  O   LIG    1       -4.178  32.069  62.263  0.00  0.00    -0.341 OA
ATOM     36  C   LIG    1       -4.039  31.276  63.440  0.00  0.00    +0.282 C 
ATOM     37  C   LIG    1       -5.124  30.196  63.490  0.00  0.00    +0.201 C 
ATOM     56  C   LIG    1       -6.522  30.809  63.392  0.00  0.00    +0.179 C 
BRANCH  37  38
ATOM     38  O   LIG    1       -4.931  29.274  62.417  0.00  0.00    -0.384 OA
ATOM     39  H   LIG    1       -5.654  28.625  62.455  0.00  0.00    +0.210 HD
ENDBRANCH  37  38
BRANCH  56  57
ATOM     57  O   LIG    1       -6.823  31.448  64.629  0.00  0.00    -0.386 OA
ATOM     58  H   LIG    1       -7.740  31.224  64.859  0.00  0.00    +0.210 HD
ENDBRANCH  56  57
BRANCH  31  32
ATOM     32  C   LIG    1       -5.486  33.937  63.142  0.00  0.00    +0.190 C 
BRANCH  32  33
ATOM     33  O   LIG    1       -4.276  34.667  63.057  0.00  0.00    -0.392 OA
ATOM     34  H   LIG    1       -3.597  34.057  62.722  0.00  0.00    +0.210 HD
ENDBRANCH  32  33
ENDBRANCH  31  32
BRANCH  36  40
ATOM     40  O   LIG    1       -2.765  30.636  63.461  0.00  0.00    -0.340 OA
BRANCH  40  41
ATOM     41  C   LIG    1       -1.853  31.267  62.565  0.00  0.00    +0.183 C 
ATOM     42  C   LIG    1       -1.024  30.213  61.819  0.00  0.00    +0.178 C 
ATOM     46  O   LIG    1       -0.010  30.833  61.020  0.00  0.00    -0.341 OA
ATOM     47  C   LIG    1        0.914  31.611  61.783  0.00  0.00    +0.279 C 
ATOM     48  C   LIG    1        0.186  32.736  62.520  0.00  0.00    +0.201 C 
ATOM     53  C   LIG    1       -0.956  32.200  63.381  0.00  0.00    +0.179 C 
BRANCH  48  49
ATOM     49  O   LIG    1        1.097  33.459  63.341  0.00  0.00    -0.384 OA
ATOM     50  H   LIG    1        0.947  33.182  64.260  0.00  0.00    +0.210 HD
ENDBRANCH  48  49
BRANCH  47  51
ATOM     51  O   LIG    1        1.706  30.807  62.656  0.00  0.00    -0.365 OA
ATOM     52  H   LIG    1        2.019  30.044  62.140  0.00  0.00    +0.213 HD
ENDBRANCH  47  51
BRANCH  53  54
ATOM     54  O   LIG    1       -1.750  33.297  63.841  0.00  0.00    -0.386 OA
ATOM     55  H   LIG    1       -2.417  32.952  64.457  0.00  0.00    +0.210 HD
ENDBRANCH  53  54
BRANCH  42  43
ATOM     43  C   LIG    1       -1.881  29.372  60.877  0.00  0.00    +0.190 C 
BRANCH  43  44
ATOM     44  O   LIG    1       -2.870  30.206  60.302  0.00  0.00    -0.392 OA
ATOM     45  H   LIG    1       -3.635  30.200  60.904  0.00  0.00    +0.210 HD
ENDBRANCH  43  44
ENDBRANCH  42  43
ENDBRANCH  40  41
ENDBRANCH  36  40
ENDBRANCH   1  30
TORSDOF 22
ENDMDL
MODEL 3
REMARK VINA RESULT:      -7.1      2.796      5.449
REMARK  Name = 41774
REMARK                            x       y       z     vdW  Elec       q    Type
REMARK                         _______ _______ _______ _____ _____    ______ ____
ROOT
ATOM      1  O   LIG    1       -2.071  32.148  61.934  0.00  0.00    -0.340 OA
ENDROOT
BRANCH   1   2
ATOM      2  C   LIG    1       -3.404  31.914  62.384  0.00  0.00    +0.282 C 
ATOM      3  C   LIG    1       -3.796  30.482  62.018  0.00  0.00    +0.200 C 
ATOM      4  C   LIG    1       -5.249  30.194  62.404  0.00  0.00    +0.167 C 
ATOM      5  C   LIG    1       -6.213  31.298  61.928  0.00  0.00    +0.114 C 
ATOM      6  C   LIG    1       -5.669  32.719  62.191  0.00  0.00    +0.138 C 
ATOM      7  C   LIG    1       -5.864  33.189  63.634  0.00  0.00    +0.039 C 
ATOM     29  O   LIG    1       -4.301  32.851  61.788  0.00  0.00    -0.344 OA
BRANCH   5   8
ATOM      8  N   LIG    1       -6.450  31.146  60.486  0.00  0.00    -0.300 NA
ATOM      9  H   LIG    1       -6.223  30.197  60.194  0.00  0.00    +0.123 HD
BRANCH   8  10
ATOM     10  C   LIG    1       -7.840  31.468  60.154  0.00  0.00    +0.109 C 
ATOM     11  C   LIG    1       -8.114  31.271  58.686  0.00  0.00    -0.002 C 
ATOM     12  C   LIG    1       -9.256  30.753  58.198  0.00  0.00    -0.016 C 
ATOM     16  C   LIG    1      -10.405  30.340  59.093  0.00  0.00    +0.173 C 
ATOM     17  C   LIG    1      -10.260  30.802  60.554  0.00  0.00    +0.177 C 
ATOM     22  C   LIG    1       -8.816  30.688  61.061  0.00  0.00    +0.166 C 
BRANCH  17  18
ATOM     18  O   LIG    1      -10.691  32.159  60.644  0.00  0.00    -0.386 OA
ATOM     19  H   LIG    1      -11.330  32.313  59.926  0.00  0.00    +0.210 HD
ENDBRANCH  17  18
BRANCH  16  20
ATOM     20  O   LIG    1      -10.500  28.918  59.047  0.00  0.00    -0.385 OA
ATOM     21  H   LIG    1       -9.621  28.558  59.257  0.00  0.00    +0.210 HD
ENDBRANCH  16  20
BRANCH  22  23
ATOM     23  O   LIG    1       -8.454  29.310  61.153  0.00  0.00    -0.387 OA
ATOM     24  H   LIG    1       -7.554  29.267  61.521  0.00  0.00    +0.210 HD
ENDBRANCH  22  23
BRANCH  12  13
ATOM     13  C   LIG    1       -9.465  30.574  56.721  0.00  0.00    +0.189 C 
BRANCH  13  14
ATOM     14  O   LIG    1      -10.709  29.940  56.491  0.00  0.00    -0.391 OA
ATOM     15  H   LIG    1      -11.198  30.489  55.853  0.00  0.00    +0.210 HD
ENDBRANCH  13  14
ENDBRANCH  12  13
ENDBRANCH   8  10
ENDBRANCH   5   8
BRANCH   4  25
ATOM     25  O   LIG    1       -5.320  30.071  63.824  0.00  0.00    -0.387 OA
ATOM     26  H   LIG    1       -4.997  29.183  64.058  0.00  0.00    +0.210 HD
ENDBRANCH   4  25
BRANCH   3  27
ATOM     27  O   LIG    1       -3.623  30.303  60.613  0.00  0.00    -0.384 OA
ATOM     28  H   LIG    1       -3.722  29.354  60.424  0.00  0.00    +0.210 HD
ENDBRANCH   3  27
ENDBRANCH   1   2
BRANCH   1  30
ATOM     30  C   LIG    1       -1.186  31.108  62.361  0.00  0.00    +0.183 C 
ATOM     31  C   LIG    1       -1.181  31.079  63.900  0.00  0.00    +0.178 C 
ATOM     35  O   LIG    1       -0.466  32.194  64.447  0.00  0.00    -0.341 OA
ATOM     36  C   LIG    1        0.879  32.327  63.994  0.00  0.00    +0.282 C 
ATOM     37  C   LIG    1        0.916  32.527  62.476  0.00  0.00    +0.201 C 
ATOM     56  C   LIG    1        0.192  31.392  61.749  0.00  0.00    +0.179 C 
BRANCH  37  38
ATOM     38  O   LIG    1        0.305  33.773  62.142  0.00  0.00    -0.384 OA
ATOM     39  H   LIG    1        0.365  34.347  62.925  0.00  0.00    +0.210 HD
ENDBRANCH  37  38
BRANCH  56  57
ATOM     57  O   LIG    1        1.004  30.224  61.814  0.00  0.00    -0.386 OA
ATOM     58  H   LIG    1        0.786  29.671  61.045  0.00  0.00    +0.210 HD
ENDBRANCH  56  57
BRANCH  31  32
ATOM     32  C   LIG    1       -0.680  29.760  64.487  0.00  0.00    +0.190 C 
BRANCH  32  33
ATOM     33  O   LIG    1       -1.064  28.708  63.622  0.00  0.00    -0.392 OA
ATOM     34  H   LIG    1       -0.258  28.213  63.397  0.00  0.00    +0.210 HD
ENDBRANCH  32  33
ENDBRANCH  31  32
BRANCH  36  40
ATOM     40  O   LIG    1        1.503  33.451  64.611  0.00  0.00    -0.340 OA
BRANCH  40  41
ATOM     41  C   LIG    1        2.621  33.054  65.403  0.00  0.00    +0.183 C 
ATOM     42  C   LIG    1        2.316  33.250  66.893  0.00  0.00    +0.178 C 
ATOM     46  O   LIG    1        3.476  32.988  67.691  0.00  0.00    -0.341 OA
ATOM     47  C   LIG    1        4.578  33.845  67.385  0.00  0.00    +0.279 C 
ATOM     48  C   LIG    1        5.000  33.674  65.925  0.00  0.00    +0.201 C 
ATOM     53  C   LIG    1        3.828  33.889  64.970  0.00  0.00    +0.179 C 
BRANCH  48  49
ATOM     49  O   LIG    1        6.045  34.585  65.603  0.00  0.00    -0.384 OA
ATOM     50  H   LIG    1        5.755  35.104  64.834  0.00  0.00    +0.210 HD
ENDBRANCH  48  49
BRANCH  47  51
ATOM     51  O   LIG    1        4.314  35.205  67.723  0.00  0.00    -0.365 OA
ATOM     52  H   LIG    1        3.380  35.379  67.514  0.00  0.00    +0.213 HD
ENDBRANCH  47  51
BRANCH  53  54
ATOM     54  O   LIG    1        4.213  33.474  63.656  0.00  0.00    -0.386 OA
ATOM     55  H   LIG    1        5.178  33.564  63.580  0.00  0.00    +0.210 HD
ENDBRANCH  53  54
BRANCH  42  43
ATOM     43  C   LIG    1        1.217  32.310  67.382  0.00  0.00    +0.190 C 
BRANCH  43  44
ATOM     44  O   LIG    1       -0.030  32.969  67.251  0.00  0.00    -0.392 OA
ATOM     45  H   LIG    1       -0.243  33.353  68.118  0.00  0.00    +0.210 HD
ENDBRANCH  43  44
ENDBRANCH  42  43
ENDBRANCH  40  41
ENDBRANCH  36  40
ENDBRANCH   1  30
TORSDOF 22
ENDMDL
MODEL 4
REMARK VINA RESULT:      -7.1      2.076      4.151
REMARK  Name = 41774
REMARK                            x       y       z     vdW  Elec       q    Type
REMARK                         _______ _______ _______ _____ _____    ______ ____
ROOT
ATOM      1  O   LIG    1       -3.434  31.403  62.331  0.00  0.00    -0.340 OA
ENDROOT
BRANCH   1   2
ATOM      2  C   LIG    1       -4.743  31.672  62.826  0.00  0.00    +0.282 C 
ATOM      3  C   LIG    1       -5.696  30.603  62.289  0.00  0.00    +0.200 C 
ATOM      4  C   LIG    1       -7.138  30.884  62.721  0.00  0.00    +0.167 C 
ATOM      5  C   LIG    1       -7.554  32.345  62.465  0.00  0.00    +0.114 C 
ATOM      6  C   LIG    1       -6.467  33.357  62.890  0.00  0.00    +0.138 C 
ATOM      7  C   LIG    1       -6.450  33.639  64.394  0.00  0.00    +0.039 C 
ATOM     29  O   LIG    1       -5.168  32.974  62.425  0.00  0.00    -0.344 OA
BRANCH   5   8
ATOM      8  N   LIG    1       -7.830  32.528  61.034  0.00  0.00    -0.300 NA
ATOM      9  H   LIG    1       -7.061  32.152  60.481  0.00  0.00    +0.123 HD
BRANCH   8  10
ATOM     10  C   LIG    1       -9.093  31.882  60.665  0.00  0.00    +0.109 C 
ATOM     11  C   LIG    1       -9.983  32.818  59.891  0.00  0.00    -0.002 C 
ATOM     12  C   LIG    1      -10.739  32.441  58.844  0.00  0.00    -0.016 C 
ATOM     16  C   LIG    1      -10.788  31.010  58.355  0.00  0.00    +0.173 C 
ATOM     17  C   LIG    1      -10.121  29.998  59.305  0.00  0.00    +0.177 C 
ATOM     22  C   LIG    1       -8.833  30.548  59.931  0.00  0.00    +0.166 C 
BRANCH  17  18
ATOM     18  O   LIG    1      -11.050  29.667  60.336  0.00  0.00    -0.386 OA
ATOM     19  H   LIG    1      -10.540  29.469  61.140  0.00  0.00    +0.210 HD
ENDBRANCH  17  18
BRANCH  16  20
ATOM     20  O   LIG    1      -10.147  30.965  57.081  0.00  0.00    -0.385 OA
ATOM     21  H   LIG    1       -9.902  30.040  56.908  0.00  0.00    +0.210 HD
ENDBRANCH  16  20
BRANCH  22  23
ATOM     23  O   LIG    1       -7.838  30.696  58.918  0.00  0.00    -0.387 OA
ATOM     24  H   LIG    1       -6.991  30.399  59.293  0.00  0.00    +0.210 HD
ENDBRANCH  22  23
BRANCH  12  13
ATOM     13  C   LIG    1      -11.600  33.427  58.107  0.00  0.00    +0.189 C 
BRANCH  13  14
ATOM     14  O   LIG    1      -10.951  33.825  56.915  0.00  0.00    -0.391 OA
ATOM     15  H   LIG    1      -10.101  34.224  57.169  0.00  0.00    +0.210 HD
ENDBRANCH  13  14
ENDBRANCH  12  13
ENDBRANCH   8  10
ENDBRANCH   5   8
BRANCH   4  25
ATOM     25  O   LIG    1       -7.254  30.585  64.112  0.00  0.00    -0.387 OA
ATOM     26  H   LIG    1       -7.877  31.226  64.498  0.00  0.00    +0.210 HD
ENDBRANCH   4  25
BRANCH   3  27
ATOM     27  O   LIG    1       -5.611  30.586  60.864  0.00  0.00    -0.384 OA
ATOM     28  H   LIG    1       -6.168  29.855  60.547  0.00  0.00    +0.210 HD
ENDBRANCH   3  27
ENDBRANCH   1   2
BRANCH   1  30
ATOM     30  C   LIG    1       -3.034  30.058  62.616  0.00  0.00    +0.183 C 
ATOM     31  C   LIG    1       -2.066  30.085  63.811  0.00  0.00    +0.178 C 
ATOM     35  O   LIG    1       -0.783  30.605  63.440  0.00  0.00    -0.341 OA
ATOM     36  C   LIG    1       -0.148  29.925  62.360  0.00  0.00    +0.282 C 
ATOM     37  C   LIG    1       -1.004  30.014  61.093  0.00  0.00    +0.201 C 
ATOM     56  C   LIG    1       -2.416  29.477  61.338  0.00  0.00    +0.179 C 
BRANCH  37  38
ATOM     38  O   LIG    1       -1.080  31.373  60.662  0.00  0.00    -0.384 OA
ATOM     39  H   LIG    1       -0.169  31.702  60.569  0.00  0.00    +0.210 HD
ENDBRANCH  37  38
BRANCH  56  57
ATOM     57  O   LIG    1       -2.349  28.058  61.431  0.00  0.00    -0.386 OA
ATOM     58  H   LIG    1       -2.913  27.785  62.174  0.00  0.00    +0.210 HD
ENDBRANCH  56  57
BRANCH  31  32
ATOM     32  C   LIG    1       -1.931  28.739  64.523  0.00  0.00    +0.190 C 
BRANCH  32  33
ATOM     33  O   LIG    1       -3.140  28.020  64.356  0.00  0.00    -0.392 OA
ATOM     34  H   LIG    1       -2.904  27.138  64.019  0.00  0.00    +0.210 HD
ENDBRANCH  32  33
ENDBRANCH  31  32
BRANCH  36  40
ATOM     40  O   LIG    1        1.125  30.506  62.085  0.00  0.00    -0.340 OA
BRANCH  40  41
ATOM     41  C   LIG    1        1.547  31.358  63.149  0.00  0.00    +0.183 C 
ATOM     42  C   LIG    1        2.090  32.679  62.590  0.00  0.00    +0.178 C 
ATOM     46  O   LIG    1        2.645  33.486  63.635  0.00  0.00    -0.341 OA
ATOM     47  C   LIG    1        3.730  32.856  64.319  0.00  0.00    +0.279 C 
ATOM     48  C   LIG    1        3.269  31.551  64.969  0.00  0.00    +0.201 C 
ATOM     53  C   LIG    1        2.616  30.616  63.953  0.00  0.00    +0.179 C 
BRANCH  48  49
ATOM     49  O   LIG    1        4.369  30.888  65.582  0.00  0.00    -0.384 OA
ATOM     50  H   LIG    1        4.035  30.062  65.969  0.00  0.00    +0.210 HD
ENDBRANCH  48  49
BRANCH  47  51
ATOM     51  O   LIG    1        4.868  32.677  63.478  0.00  0.00    -0.365 OA
ATOM     52  H   LIG    1        4.583  32.855  62.566  0.00  0.00    +0.213 HD
ENDBRANCH  47  51
BRANCH  53  54
ATOM     54  O   LIG    1        1.985  29.537  64.649  0.00  0.00    -0.386 OA
ATOM     55  H   LIG    1        2.209  28.709  64.192  0.00  0.00    +0.210 HD
ENDBRANCH  53  54
BRANCH  42  43
ATOM     43  C   LIG    1        0.999  33.509  61.917  0.00  0.00    +0.190 C 
BRANCH  43  44
ATOM     44  O   LIG    1       -0.209  33.329  62.634  0.00  0.00    -0.392 OA
ATOM     45  H   LIG    1       -0.472  34.201  62.975  0.00  0.00    +0.210 HD
ENDBRANCH  43  44
ENDBRANCH  42  43
ENDBRANCH  40  41
ENDBRANCH  36  40
ENDBRANCH   1  30
TORSDOF 22
ENDMDL
MODEL 5
REMARK VINA RESULT:      -7.0      7.254     15.562
REMARK  Name = 41774
REMARK                            x       y       z     vdW  Elec       q    Type
REMARK                         _______ _______ _______ _____ _____    ______ ____
ROOT
ATOM      1  O   LIG    1        2.516  30.832  66.551  0.00  0.00    -0.340 OA
ENDROOT
BRANCH   1   2
ATOM      2  C   LIG    1        3.898  30.984  66.870  0.00  0.00    +0.282 C 
ATOM      3  C   LIG    1        4.596  29.639  66.660  0.00  0.00    +0.200 C 
ATOM      4  C   LIG    1        6.071  29.716  67.064  0.00  0.00    +0.167 C 
ATOM      5  C   LIG    1        6.268  30.369  68.446  0.00  0.00    +0.114 C 
ATOM      6  C   LIG    1        5.405  31.635  68.637  0.00  0.00    +0.138 C 
ATOM      7  C   LIG    1        5.998  32.882  67.977  0.00  0.00    +0.039 C 
ATOM     29  O   LIG    1        4.051  31.428  68.218  0.00  0.00    -0.344 OA
BRANCH   5   8
ATOM      8  N   LIG    1        5.917  29.400  69.494  0.00  0.00    -0.300 NA
ATOM      9  H   LIG    1        4.932  29.150  69.420  0.00  0.00    +0.123 HD
BRANCH   8  10
ATOM     10  C   LIG    1        6.761  28.206  69.398  0.00  0.00    +0.109 C 
ATOM     11  C   LIG    1        8.224  28.564  69.428  0.00  0.00    -0.002 C 
ATOM     12  C   LIG    1        9.159  27.845  70.077  0.00  0.00    -0.016 C 
ATOM     16  C   LIG    1        8.826  26.572  70.825  0.00  0.00    +0.173 C 
ATOM     17  C   LIG    1        7.406  26.041  70.561  0.00  0.00    +0.177 C 
ATOM     22  C   LIG    1        6.368  27.168  70.472  0.00  0.00    +0.166 C 
BRANCH  17  18
ATOM     18  O   LIG    1        7.419  25.306  69.338  0.00  0.00    -0.386 OA
ATOM     19  H   LIG    1        7.262  25.937  68.614  0.00  0.00    +0.210 HD
ENDBRANCH  17  18
BRANCH  16  20
ATOM     20  O   LIG    1        8.988  26.834  72.218  0.00  0.00    -0.385 OA
ATOM     21  H   LIG    1        9.941  26.917  72.393  0.00  0.00    +0.210 HD
ENDBRANCH  16  20
BRANCH  22  23
ATOM     23  O   LIG    1        6.218  27.777  71.754  0.00  0.00    -0.387 OA
ATOM     24  H   LIG    1        5.269  27.782  71.967  0.00  0.00    +0.210 HD
ENDBRANCH  22  23
BRANCH  12  13
ATOM     13  C   LIG    1       10.602  28.260  70.076  0.00  0.00    +0.189 C 
BRANCH  13  14
ATOM     14  O   LIG    1       11.404  27.186  69.622  0.00  0.00    -0.391 OA
ATOM     15  H   LIG    1       10.876  26.374  69.713  0.00  0.00    +0.210 HD
ENDBRANCH  13  14
ENDBRANCH  12  13
ENDBRANCH   8  10
ENDBRANCH   5   8
BRANCH   4  25
ATOM     25  O   LIG    1        6.768  30.469  66.071  0.00  0.00    -0.387 OA
ATOM     26  H   LIG    1        6.436  30.184  65.202  0.00  0.00    +0.210 HD
ENDBRANCH   4  25
BRANCH   3  27
ATOM     27  O   LIG    1        3.930  28.649  67.443  0.00  0.00    -0.384 OA
ATOM     28  H   LIG    1        3.428  29.113  68.135  0.00  0.00    +0.210 HD
ENDBRANCH   3  27
ENDBRANCH   1   2
BRANCH   1  30
ATOM     30  C   LIG    1        1.920  32.085  66.205  0.00  0.00    +0.183 C 
ATOM     31  C   LIG    1        0.405  31.870  66.034  0.00  0.00    +0.178 C 
ATOM     35  O   LIG    1        0.106  31.160  64.826  0.00  0.00    -0.341 OA
ATOM     36  C   LIG    1        0.614  31.758  63.635  0.00  0.00    +0.282 C 
ATOM     37  C   LIG    1        2.142  31.843  63.688  0.00  0.00    +0.201 C 
ATOM     56  C   LIG    1        2.613  32.594  64.934  0.00  0.00    +0.179 C 
BRANCH  37  38
ATOM     38  O   LIG    1        2.694  30.526  63.687  0.00  0.00    -0.384 OA
ATOM     39  H   LIG    1        2.978  30.328  62.778  0.00  0.00    +0.210 HD
ENDBRANCH  37  38
BRANCH  56  57
ATOM     57  O   LIG    1        2.345  33.980  64.754  0.00  0.00    -0.386 OA
ATOM     58  H   LIG    1        1.410  34.068  64.502  0.00  0.00    +0.210 HD
ENDBRANCH  56  57
BRANCH  31  32
ATOM     32  C   LIG    1       -0.413  33.157  66.136  0.00  0.00    +0.190 C 
BRANCH  32  33
ATOM     33  O   LIG    1        0.310  34.088  66.920  0.00  0.00    -0.392 OA
ATOM     34  H   LIG    1        1.086  33.622  67.275  0.00  0.00    +0.210 HD
ENDBRANCH  32  33
ENDBRANCH  31  32
BRANCH  36  40
ATOM     40  O   LIG    1        0.244  30.986  62.495  0.00  0.00    -0.340 OA
BRANCH  40  41
ATOM     41  C   LIG    1       -0.853  31.577  61.801  0.00  0.00    +0.183 C 
ATOM     42  C   LIG    1       -0.460  32.960  61.264  0.00  0.00    +0.178 C 
ATOM     46  O   LIG    1       -1.591  33.623  60.688  0.00  0.00    -0.341 OA
ATOM     47  C   LIG    1       -2.656  33.835  61.616  0.00  0.00    +0.279 C 
ATOM     48  C   LIG    1       -3.162  32.500  62.164  0.00  0.00    +0.201 C 
ATOM     53  C   LIG    1       -2.030  31.675  62.773  0.00  0.00    +0.179 C 
BRANCH  48  49
ATOM     49  O   LIG    1       -4.168  32.719  63.146  0.00  0.00    -0.384 OA
ATOM     50  H   LIG    1       -3.726  33.026  63.955  0.00  0.00    +0.210 HD
ENDBRANCH  48  49
BRANCH  47  51
ATOM     51  O   LIG    1       -2.298  34.751  62.649  0.00  0.00    -0.365 OA
ATOM     52  H   LIG    1       -2.527  34.333  63.497  0.00  0.00    +0.213 HD
ENDBRANCH  47  51
BRANCH  53  54
ATOM     54  O   LIG    1       -2.505  30.352  63.036  0.00  0.00    -0.386 OA
ATOM     55  H   LIG    1       -2.954  30.026  62.238  0.00  0.00    +0.210 HD
ENDBRANCH  53  54
BRANCH  42  43
ATOM     43  C   LIG    1        0.607  32.870  60.176  0.00  0.00    +0.190 C 
BRANCH  43  44
ATOM     44  O   LIG    1        1.845  33.282  60.726  0.00  0.00    -0.392 OA
ATOM     45  H   LIG    1        1.655  34.003  61.351  0.00  0.00    +0.210 HD
ENDBRANCH  43  44
ENDBRANCH  42  43
ENDBRANCH  40  41
ENDBRANCH  36  40
ENDBRANCH   1  30
TORSDOF 22
ENDMDL
MODEL 6
REMARK VINA RESULT:      -7.0      2.977      6.077
REMARK  Name = 41774
REMARK                            x       y       z     vdW  Elec       q    Type
REMARK                         _______ _______ _______ _____ _____    ______ ____
ROOT
ATOM      1  O   LIG    1       -0.862  30.212  62.648  0.00  0.00    -0.340 OA
ENDROOT
BRANCH   1   2
ATOM      2  C   LIG    1       -2.169  29.973  63.166  0.00  0.00    +0.282 C 
ATOM      3  C   LIG    1       -2.763  28.763  62.443  0.00  0.00    +0.200 C 
ATOM      4  C   LIG    1       -4.202  28.503  62.899  0.00  0.00    +0.167 C 
ATOM      5  C   LIG    1       -5.062  29.782  62.890  0.00  0.00    +0.114 C 
ATOM      6  C   LIG    1       -4.327  30.999  63.494  0.00  0.00    +0.138 C 
ATOM      7  C   LIG    1       -4.335  31.019  65.023  0.00  0.00    +0.039 C 
ATOM     29  O   LIG    1       -2.993  31.124  62.986  0.00  0.00    -0.344 OA
BRANCH   5   8
ATOM      8  N   LIG    1       -5.440  30.103  61.507  0.00  0.00    -0.300 NA
ATOM      9  H   LIG    1       -5.309  29.286  60.912  0.00  0.00    +0.123 HD
BRANCH   8  10
ATOM     10  C   LIG    1       -6.829  30.567  61.445  0.00  0.00    +0.109 C 
ATOM     11  C   LIG    1       -7.212  30.968  60.045  0.00  0.00    -0.002 C 
ATOM     12  C   LIG    1       -8.414  30.714  59.494  0.00  0.00    -0.016 C 
ATOM     16  C   LIG    1       -9.521  30.015  60.253  0.00  0.00    +0.173 C 
ATOM     17  C   LIG    1       -9.250  29.863  61.761  0.00  0.00    +0.177 C 
ATOM     22  C   LIG    1       -7.785  29.520  62.059  0.00  0.00    +0.166 C 
BRANCH  17  18
ATOM     18  O   LIG    1       -9.595  31.088  62.407  0.00  0.00    -0.386 OA
ATOM     19  H   LIG    1      -10.431  31.400  62.020  0.00  0.00    +0.210 HD
ENDBRANCH  17  18
BRANCH  16  20
ATOM     20  O   LIG    1       -9.701  28.727  59.667  0.00  0.00    -0.385 OA
ATOM     21  H   LIG    1       -8.819  28.362  59.483  0.00  0.00    +0.210 HD
ENDBRANCH  16  20
BRANCH  22  23
ATOM     23  O   LIG    1       -7.498  28.207  61.577  0.00  0.00    -0.387 OA
ATOM     24  H   LIG    1       -7.494  27.608  62.344  0.00  0.00    +0.210 HD
ENDBRANCH  22  23
BRANCH  12  13
ATOM     13  C   LIG    1       -8.732  31.133  58.087  0.00  0.00    +0.189 C 
BRANCH  13  14
ATOM     14  O   LIG    1       -9.104  29.999  57.327  0.00  0.00    -0.391 OA
ATOM     15  H   LIG    1       -9.869  30.255  56.785  0.00  0.00    +0.210 HD
ENDBRANCH  13  14
ENDBRANCH  12  13
ENDBRANCH   8  10
ENDBRANCH   5   8
BRANCH   4  25
ATOM     25  O   LIG    1       -4.163  27.958  64.217  0.00  0.00    -0.387 OA
ATOM     26  H   LIG    1       -5.032  27.557  64.394  0.00  0.00    +0.210 HD
ENDBRANCH   4  25
BRANCH   3  27
ATOM     27  O   LIG    1       -2.737  29.010  61.037  0.00  0.00    -0.384 OA
ATOM     28  H   LIG    1       -1.820  28.891  60.737  0.00  0.00    +0.210 HD
ENDBRANCH   3  27
ENDBRANCH   1   2
BRANCH   1  30
ATOM     30  C   LIG    1       -0.460  31.570  62.853  0.00  0.00    +0.183 C 
ATOM     31  C   LIG    1        0.843  31.813  62.071  0.00  0.00    +0.178 C 
ATOM     35  O   LIG    1        1.962  31.172  62.696  0.00  0.00    -0.341 OA
ATOM     36  C   LIG    1        2.178  31.535  64.058  0.00  0.00    +0.282 C 
ATOM     37  C   LIG    1        0.965  31.158  64.913  0.00  0.00    +0.201 C 
ATOM     56  C   LIG    1       -0.317  31.788  64.365  0.00  0.00    +0.179 C 
BRANCH  37  38
ATOM     38  O   LIG    1        0.823  29.738  64.942  0.00  0.00    -0.384 OA
ATOM     39  H   LIG    1       -0.121  29.541  65.070  0.00  0.00    +0.210 HD
ENDBRANCH  37  38
BRANCH  56  57
ATOM     57  O   LIG    1       -0.295  33.182  64.656  0.00  0.00    -0.386 OA
ATOM     58  H   LIG    1       -0.297  33.659  63.809  0.00  0.00    +0.210 HD
ENDBRANCH  56  57
BRANCH  31  32
ATOM     32  C   LIG    1        1.132  33.289  61.801  0.00  0.00    +0.190 C 
BRANCH  32  33
ATOM     33  O   LIG    1       -0.102  33.975  61.689  0.00  0.00    -0.392 OA
ATOM     34  H   LIG    1       -0.348  34.269  62.583  0.00  0.00    +0.210 HD
ENDBRANCH  32  33
ENDBRANCH  31  32
BRANCH  36  40
ATOM     40  O   LIG    1        3.322  30.859  64.576  0.00  0.00    -0.340 OA
BRANCH  40  41
ATOM     41  C   LIG    1        4.139  31.738  65.347  0.00  0.00    +0.183 C 
ATOM     42  C   LIG    1        3.656  31.774  66.803  0.00  0.00    +0.178 C 
ATOM     46  O   LIG    1        4.377  32.756  67.556  0.00  0.00    -0.341 OA
ATOM     47  C   LIG    1        4.228  34.082  67.044  0.00  0.00    +0.279 C 
ATOM     48  C   LIG    1        4.745  34.163  65.607  0.00  0.00    +0.201 C 
ATOM     53  C   LIG    1        4.075  33.126  64.708  0.00  0.00    +0.179 C 
BRANCH  48  49
ATOM     49  O   LIG    1        4.524  35.464  65.075  0.00  0.00    -0.384 OA
ATOM     50  H   LIG    1        4.910  35.486  64.183  0.00  0.00    +0.210 HD
ENDBRANCH  48  49
BRANCH  47  51
ATOM     51  O   LIG    1        2.892  34.564  67.174  0.00  0.00    -0.365 OA
ATOM     52  H   LIG    1        2.865  35.448  66.770  0.00  0.00    +0.213 HD
ENDBRANCH  47  51
BRANCH  53  54
ATOM     54  O   LIG    1        4.767  33.076  63.457  0.00  0.00    -0.386 OA
ATOM     55  H   LIG    1        4.110  33.149  62.744  0.00  0.00    +0.210 HD
ENDBRANCH  53  54
BRANCH  42  43
ATOM     43  C   LIG    1        3.857  30.435  67.508  0.00  0.00    +0.190 C 
BRANCH  43  44
ATOM     44  O   LIG    1        2.759  29.596  67.201  0.00  0.00    -0.392 OA
ATOM     45  H   LIG    1        1.950  30.114  67.354  0.00  0.00    +0.210 HD
ENDBRANCH  43  44
ENDBRANCH  42  43
ENDBRANCH  40  41
ENDBRANCH  36  40
ENDBRANCH   1  30
TORSDOF 22
ENDMDL
MODEL 7
REMARK VINA RESULT:      -6.9      3.973     12.525
REMARK  Name = 41774
REMARK                            x       y       z     vdW  Elec       q    Type
REMARK                         _______ _______ _______ _____ _____    ______ ____
ROOT
ATOM      1  O   LIG    1       -1.694  31.827  64.100  0.00  0.00    -0.340 OA
ENDROOT
BRANCH   1   2
ATOM      2  C   LIG    1       -0.733  30.774  64.112  0.00  0.00    +0.282 C 
ATOM      3  C   LIG    1       -0.831  30.043  65.452  0.00  0.00    +0.200 C 
ATOM      4  C   LIG    1        0.235  28.948  65.559  0.00  0.00    +0.167 C 
ATOM      5  C   LIG    1        1.637  29.452  65.168  0.00  0.00    +0.114 C 
ATOM      6  C   LIG    1        1.625  30.318  63.890  0.00  0.00    +0.138 C 
ATOM      7  C   LIG    1        1.573  29.498  62.599  0.00  0.00    +0.039 C 
ATOM     29  O   LIG    1        0.580  31.298  63.917  0.00  0.00    -0.344 OA
BRANCH   5   8
ATOM      8  N   LIG    1        2.190  30.252  66.270  0.00  0.00    -0.300 NA
ATOM      9  H   LIG    1        2.158  29.718  67.138  0.00  0.00    +0.123 HD
BRANCH   8  10
ATOM     10  C   LIG    1        3.563  30.665  65.970  0.00  0.00    +0.109 C 
ATOM     11  C   LIG    1        3.631  32.127  65.614  0.00  0.00    -0.002 C 
ATOM     12  C   LIG    1        4.623  32.949  66.005  0.00  0.00    -0.016 C 
ATOM     16  C   LIG    1        5.797  32.467  66.828  0.00  0.00    +0.173 C 
ATOM     17  C   LIG    1        5.892  30.935  66.950  0.00  0.00    +0.177 C 
ATOM     22  C   LIG    1        4.517  30.277  67.121  0.00  0.00    +0.166 C 
BRANCH  17  18
ATOM     18  O   LIG    1        6.521  30.427  65.774  0.00  0.00    -0.386 OA
ATOM     19  H   LIG    1        7.466  30.655  65.824  0.00  0.00    +0.210 HD
ENDBRANCH  17  18
BRANCH  16  20
ATOM     20  O   LIG    1        5.681  33.044  68.128  0.00  0.00    -0.385 OA
ATOM     21  H   LIG    1        5.297  32.371  68.715  0.00  0.00    +0.210 HD
ENDBRANCH  16  20
BRANCH  22  23
ATOM     23  O   LIG    1        3.974  30.637  68.392  0.00  0.00    -0.387 OA
ATOM     24  H   LIG    1        4.681  31.068  68.901  0.00  0.00    +0.210 HD
ENDBRANCH  22  23
BRANCH  12  13
ATOM     13  C   LIG    1        4.629  34.402  65.623  0.00  0.00    +0.189 C 
BRANCH  13  14
ATOM     14  O   LIG    1        5.963  34.864  65.536  0.00  0.00    -0.391 OA
ATOM     15  H   LIG    1        5.927  35.797  65.264  0.00  0.00    +0.210 HD
ENDBRANCH  13  14
ENDBRANCH  12  13
ENDBRANCH   8  10
ENDBRANCH   5   8
BRANCH   4  25
ATOM     25  O   LIG    1       -0.145  27.868  64.706  0.00  0.00    -0.387 OA
ATOM     26  H   LIG    1        0.592  27.233  64.692  0.00  0.00    +0.210 HD
ENDBRANCH   4  25
BRANCH   3  27
ATOM     27  O   LIG    1       -0.660  30.990  66.506  0.00  0.00    -0.384 OA
ATOM     28  H   LIG    1       -0.091  31.703  66.168  0.00  0.00    +0.210 HD
ENDBRANCH   3  27
ENDBRANCH   1   2
BRANCH   1  30
ATOM     30  C   LIG    1       -1.881  32.348  62.780  0.00  0.00    +0.183 C 
ATOM     31  C   LIG    1       -2.831  33.555  62.867  0.00  0.00    +0.178 C 
ATOM     35  O   LIG    1       -4.182  33.148  63.120  0.00  0.00    -0.341 OA
ATOM     36  C   LIG    1       -4.716  32.220  62.178  0.00  0.00    +0.282 C 
ATOM     37  C   LIG    1       -3.896  30.926  62.176  0.00  0.00    +0.201 C 
ATOM     56  C   LIG    1       -2.417  31.208  61.904  0.00  0.00    +0.179 C 
BRANCH  37  38
ATOM     38  O   LIG    1       -4.033  30.271  63.437  0.00  0.00    -0.384 OA
ATOM     39  H   LIG    1       -4.945  30.411  63.742  0.00  0.00    +0.210 HD
ENDBRANCH  37  38
BRANCH  56  57
ATOM     57  O   LIG    1       -2.266  31.540  60.527  0.00  0.00    -0.386 OA
ATOM     58  H   LIG    1       -1.444  32.051  60.437  0.00  0.00    +0.210 HD
ENDBRANCH  56  57
BRANCH  31  32
ATOM     32  C   LIG    1       -2.752  34.486  61.657  0.00  0.00    +0.190 C 
BRANCH  32  33
ATOM     33  O   LIG    1       -2.216  35.727  62.080  0.00  0.00    -0.392 OA
ATOM     34  H   LIG    1       -2.756  36.032  62.829  0.00  0.00    +0.210 HD
ENDBRANCH  32  33
ENDBRANCH  31  32
BRANCH  36  40
ATOM     40  O   LIG    1       -6.065  31.898  62.509  0.00  0.00    -0.340 OA
BRANCH  40  41
ATOM     41  C   LIG    1       -6.981  32.493  61.592  0.00  0.00    +0.183 C 
ATOM     42  C   LIG    1       -8.026  33.324  62.347  0.00  0.00    +0.178 C 
ATOM     46  O   LIG    1       -9.033  33.813  61.453  0.00  0.00    -0.341 OA
ATOM     47  C   LIG    1       -9.747  32.774  60.783  0.00  0.00    +0.279 C 
ATOM     48  C   LIG    1       -8.792  31.921  59.946  0.00  0.00    +0.201 C 
ATOM     53  C   LIG    1       -7.641  31.372  60.787  0.00  0.00    +0.179 C 
BRANCH  48  49
ATOM     49  O   LIG    1       -9.494  30.840  59.343  0.00  0.00    -0.384 OA
ATOM     50  H   LIG    1      -10.367  30.785  59.766  0.00  0.00    +0.210 HD
ENDBRANCH  48  49
BRANCH  47  51
ATOM     51  O   LIG    1      -10.534  31.993  61.680  0.00  0.00    -0.365 OA
ATOM     52  H   LIG    1      -11.247  32.565  62.010  0.00  0.00    +0.213 HD
ENDBRANCH  47  51
BRANCH  53  54
ATOM     54  O   LIG    1       -6.657  30.803  59.919  0.00  0.00    -0.386 OA
ATOM     55  H   LIG    1       -7.087  30.117  59.381  0.00  0.00    +0.210 HD
ENDBRANCH  53  54
BRANCH  42  43
ATOM     43  C   LIG    1       -7.407  34.541  63.031  0.00  0.00    +0.190 C 
BRANCH  43  44
ATOM     44  O   LIG    1       -6.830  34.124  64.255  0.00  0.00    -0.392 OA
ATOM     45  H   LIG    1       -6.966  33.163  64.323  0.00  0.00    +0.210 HD
ENDBRANCH  43  44
ENDBRANCH  42  43
ENDBRANCH  40  41
ENDBRANCH  36  40
ENDBRANCH   1  30
TORSDOF 22
ENDMDL
MODEL 8
REMARK VINA RESULT:      -6.8      3.496      7.148
REMARK  Name = 41774
REMARK                            x       y       z     vdW  Elec       q    Type
REMARK                         _______ _______ _______ _____ _____    ______ ____
ROOT
ATOM      1  O   LIG    1       -0.565  32.147  63.204  0.00  0.00    -0.340 OA
ENDROOT
BRANCH   1   2
ATOM      2  C   LIG    1       -1.531  31.154  62.863  0.00  0.00    +0.282 C 
ATOM      3  C   LIG    1       -1.786  31.222  61.357  0.00  0.00    +0.200 C 
ATOM      4  C   LIG    1       -2.877  30.232  60.939  0.00  0.00    +0.167 C 
ATOM      5  C   LIG    1       -4.126  30.320  61.838  0.00  0.00    +0.114 C 
ATOM      6  C   LIG    1       -3.774  30.410  63.339  0.00  0.00    +0.138 C 
ATOM      7  C   LIG    1       -3.433  29.057  63.967  0.00  0.00    +0.039 C 
ATOM     29  O   LIG    1       -2.739  31.368  63.591  0.00  0.00    -0.344 OA
BRANCH   5   8
ATOM      8  N   LIG    1       -4.907  31.508  61.468  0.00  0.00    -0.300 NA
ATOM      9  H   LIG    1       -4.895  31.631  60.457  0.00  0.00    +0.123 HD
BRANCH   8  10
ATOM     10  C   LIG    1       -6.283  31.394  61.957  0.00  0.00    +0.109 C 
ATOM     11  C   LIG    1       -6.897  32.749  62.191  0.00  0.00    -0.002 C 
ATOM     12  C   LIG    1       -8.175  33.055  61.903  0.00  0.00    -0.016 C 
ATOM     16  C   LIG    1       -9.141  32.039  61.332  0.00  0.00    +0.173 C 
ATOM     17  C   LIG    1       -8.619  30.591  61.361  0.00  0.00    +0.177 C 
ATOM     22  C   LIG    1       -7.126  30.501  61.019  0.00  0.00    +0.166 C 
BRANCH  17  18
ATOM     18  O   LIG    1       -8.844  30.056  62.665  0.00  0.00    -0.386 OA
ATOM     19  H   LIG    1       -8.185  29.356  62.814  0.00  0.00    +0.210 HD
ENDBRANCH  17  18
BRANCH  16  20
ATOM     20  O   LIG    1       -9.425  32.419  59.986  0.00  0.00    -0.385 OA
ATOM     21  H   LIG    1      -10.369  32.643  59.937  0.00  0.00    +0.210 HD
ENDBRANCH  16  20
BRANCH  22  23
ATOM     23  O   LIG    1       -6.931  30.854  59.650  0.00  0.00    -0.387 OA
ATOM     24  H   LIG    1       -6.720  30.038  59.164  0.00  0.00    +0.210 HD
ENDBRANCH  22  23
BRANCH  12  13
ATOM     13  C   LIG    1       -8.726  34.429  62.153  0.00  0.00    +0.189 C 
BRANCH  13  14
ATOM     14  O   LIG    1       -7.670  35.308  62.493  0.00  0.00    -0.391 OA
ATOM     15  H   LIG    1       -7.456  35.151  63.428  0.00  0.00    +0.210 HD
ENDBRANCH  13  14
ENDBRANCH  12  13
ENDBRANCH   8  10
ENDBRANCH   5   8
BRANCH   4  25
ATOM     25  O   LIG    1       -2.332  28.914  60.998  0.00  0.00    -0.387 OA
ATOM     26  H   LIG    1       -2.869  28.349  60.416  0.00  0.00    +0.210 HD
ENDBRANCH   4  25
BRANCH   3  27
ATOM     27  O   LIG    1       -2.181  32.550  61.017  0.00  0.00    -0.384 OA
ATOM     28  H   LIG    1       -1.482  33.151  61.328  0.00  0.00    +0.210 HD
ENDBRANCH   3  27
ENDBRANCH   1   2
BRANCH   1  30
ATOM     30  C   LIG    1        0.769  31.644  63.073  0.00  0.00    +0.183 C 
ATOM     31  C   LIG    1        0.913  30.413  63.985  0.00  0.00    +0.178 C 
ATOM     35  O   LIG    1        0.969  30.783  65.368  0.00  0.00    -0.341 OA
ATOM     36  C   LIG    1        1.997  31.714  65.700  0.00  0.00    +0.282 C 
ATOM     37  C   LIG    1        1.799  33.027  64.936  0.00  0.00    +0.201 C 
ATOM     56  C   LIG    1        1.731  32.785  63.427  0.00  0.00    +0.179 C 
BRANCH  37  38
ATOM     38  O   LIG    1        0.595  33.657  65.372  0.00  0.00    -0.384 OA
ATOM     39  H   LIG    1        0.751  34.617  65.373  0.00  0.00    +0.210 HD
ENDBRANCH  37  38
BRANCH  56  57
ATOM     57  O   LIG    1        3.041  32.480  62.959  0.00  0.00    -0.386 OA
ATOM     58  H   LIG    1        3.033  31.562  62.640  0.00  0.00    +0.210 HD
ENDBRANCH  56  57
BRANCH  31  32
ATOM     32  C   LIG    1        2.083  29.504  63.609  0.00  0.00    +0.190 C 
BRANCH  32  33
ATOM     33  O   LIG    1        2.251  28.540  64.633  0.00  0.00    -0.392 OA
ATOM     34  H   LIG    1        1.433  28.536  65.159  0.00  0.00    +0.210 HD
ENDBRANCH  32  33
ENDBRANCH  31  32
BRANCH  36  40
ATOM     40  O   LIG    1        1.978  31.999  67.097  0.00  0.00    -0.340 OA
BRANCH  40  41
ATOM     41  C   LIG    1        3.297  32.168  67.611  0.00  0.00    +0.183 C 
ATOM     42  C   LIG    1        3.682  33.653  67.614  0.00  0.00    +0.178 C 
ATOM     46  O   LIG    1        5.051  33.825  67.995  0.00  0.00    -0.341 OA
ATOM     47  C   LIG    1        5.969  33.170  67.118  0.00  0.00    +0.279 C 
ATOM     48  C   LIG    1        5.705  31.663  67.095  0.00  0.00    +0.201 C 
ATOM     53  C   LIG    1        4.253  31.351  66.739  0.00  0.00    +0.179 C 
BRANCH  48  49
ATOM     49  O   LIG    1        6.568  31.025  66.161  0.00  0.00    -0.384 OA
ATOM     50  H   LIG    1        6.098  30.980  65.311  0.00  0.00    +0.210 HD
ENDBRANCH  48  49
BRANCH  47  51
ATOM     51  O   LIG    1        5.973  33.745  65.813  0.00  0.00    -0.365 OA
ATOM     52  H   LIG    1        6.865  34.101  65.658  0.00  0.00    +0.213 HD
ENDBRANCH  47  51
BRANCH  53  54
ATOM     54  O   LIG    1        4.002  29.963  66.976  0.00  0.00    -0.386 OA
ATOM     55  H   LIG    1        3.226  29.890  67.558  0.00  0.00    +0.210 HD
ENDBRANCH  53  54
BRANCH  42  43
ATOM     43  C   LIG    1        2.840  34.461  68.599  0.00  0.00    +0.190 C 
BRANCH  43  44
ATOM     44  O   LIG    1        1.654  34.873  67.944  0.00  0.00    -0.392 OA
ATOM     45  H   LIG    1        1.092  34.085  67.847  0.00  0.00    +0.210 HD
ENDBRANCH  43  44
ENDBRANCH  42  43
ENDBRANCH  40  41
ENDBRANCH  36  40
ENDBRANCH   1  30
TORSDOF 22
ENDMDL
MODEL 9
REMARK VINA RESULT:      -6.8      7.394     15.686
REMARK  Name = 41774
REMARK                            x       y       z     vdW  Elec       q    Type
REMARK                         _______ _______ _______ _____ _____    ______ ____
ROOT
ATOM      1  O   LIG    1        2.567  30.888  66.536  0.00  0.00    -0.340 OA
ENDROOT
BRANCH   1   2
ATOM      2  C   LIG    1        3.958  31.027  66.815  0.00  0.00    +0.282 C 
ATOM      3  C   LIG    1        4.638  29.677  66.582  0.00  0.00    +0.200 C 
ATOM      4  C   LIG    1        6.125  29.741  66.944  0.00  0.00    +0.167 C 
ATOM      5  C   LIG    1        6.367  30.387  68.322  0.00  0.00    +0.114 C 
ATOM      6  C   LIG    1        5.520  31.660  68.540  0.00  0.00    +0.138 C 
ATOM      7  C   LIG    1        6.105  32.904  67.868  0.00  0.00    +0.039 C 
ATOM     29  O   LIG    1        4.153  31.465  68.159  0.00  0.00    -0.344 OA
BRANCH   5   8
ATOM      8  N   LIG    1        6.038  29.419  69.377  0.00  0.00    -0.300 NA
ATOM      9  H   LIG    1        5.736  28.539  68.960  0.00  0.00    +0.123 HD
BRANCH   8  10
ATOM     10  C   LIG    1        7.188  29.203  70.258  0.00  0.00    +0.109 C 
ATOM     11  C   LIG    1        6.772  28.570  71.559  0.00  0.00    -0.002 C 
ATOM     12  C   LIG    1        7.485  27.621  72.194  0.00  0.00    -0.016 C 
ATOM     16  C   LIG    1        8.809  27.114  71.666  0.00  0.00    +0.173 C 
ATOM     17  C   LIG    1        9.384  27.949  70.507  0.00  0.00    +0.177 C 
ATOM     22  C   LIG    1        8.299  28.415  69.529  0.00  0.00    +0.166 C 
BRANCH  17  18
ATOM     18  O   LIG    1       10.051  29.085  71.057  0.00  0.00    -0.386 OA
ATOM     19  H   LIG    1        9.927  29.827  70.440  0.00  0.00    +0.210 HD
ENDBRANCH  17  18
BRANCH  16  20
ATOM     20  O   LIG    1        8.616  25.767  71.235  0.00  0.00    -0.385 OA
ATOM     21  H   LIG    1        7.935  25.372  71.805  0.00  0.00    +0.210 HD
ENDBRANCH  16  20
BRANCH  22  23
ATOM     23  O   LIG    1        7.767  27.285  68.837  0.00  0.00    -0.387 OA
ATOM     24  H   LIG    1        8.056  26.487  69.312  0.00  0.00    +0.210 HD
ENDBRANCH  22  23
BRANCH  12  13
ATOM     13  C   LIG    1        7.011  27.022  73.487  0.00  0.00    +0.189 C 
BRANCH  13  14
ATOM     14  O   LIG    1        6.711  25.653  73.294  0.00  0.00    -0.391 OA
ATOM     15  H   LIG    1        6.133  25.379  74.027  0.00  0.00    +0.210 HD
ENDBRANCH  13  14
ENDBRANCH  12  13
ENDBRANCH   8  10
ENDBRANCH   5   8
BRANCH   4  25
ATOM     25  O   LIG    1        6.800  30.490  65.934  0.00  0.00    -0.387 OA
ATOM     26  H   LIG    1        7.714  30.633  66.238  0.00  0.00    +0.210 HD
ENDBRANCH   4  25
BRANCH   3  27
ATOM     27  O   LIG    1        3.987  28.690  67.381  0.00  0.00    -0.384 OA
ATOM     28  H   LIG    1        4.635  28.364  68.028  0.00  0.00    +0.210 HD
ENDBRANCH   3  27
ENDBRANCH   1   2
BRANCH   1  30
ATOM     30  C   LIG    1        1.972  32.147  66.207  0.00  0.00    +0.183 C 
ATOM     31  C   LIG    1        0.444  31.966  66.172  0.00  0.00    +0.178 C 
ATOM     35  O   LIG    1        0.026  31.233  65.013  0.00  0.00    -0.341 OA
ATOM     36  C   LIG    1        0.444  31.788  63.768  0.00  0.00    +0.282 C 
ATOM     37  C   LIG    1        1.972  31.836  63.688  0.00  0.00    +0.201 C 
ATOM     56  C   LIG    1        2.566  32.605  64.869  0.00  0.00    +0.179 C 
BRANCH  37  38
ATOM     38  O   LIG    1        2.492  30.506  63.676  0.00  0.00    -0.384 OA
ATOM     39  H   LIG    1        3.323  30.512  64.181  0.00  0.00    +0.210 HD
ENDBRANCH  37  38
BRANCH  56  57
ATOM     57  O   LIG    1        2.315  33.994  64.675  0.00  0.00    -0.386 OA
ATOM     58  H   LIG    1        2.810  34.274  63.887  0.00  0.00    +0.210 HD
ENDBRANCH  56  57
BRANCH  31  32
ATOM     32  C   LIG    1       -0.333  33.275  66.308  0.00  0.00    +0.190 C 
BRANCH  32  33
ATOM     33  O   LIG    1        0.459  34.193  67.039  0.00  0.00    -0.392 OA
ATOM     34  H   LIG    1        0.431  33.916  67.971  0.00  0.00    +0.210 HD
ENDBRANCH  32  33
ENDBRANCH  31  32
BRANCH  36  40
ATOM     40  O   LIG    1       -0.041  30.998  62.684  0.00  0.00    -0.340 OA
BRANCH  40  41
ATOM     41  C   LIG    1       -1.097  31.658  61.991  0.00  0.00    +0.183 C 
ATOM     42  C   LIG    1       -0.703  33.108  61.676  0.00  0.00    +0.178 C 
ATOM     46  O   LIG    1       -1.804  33.823  61.105  0.00  0.00    -0.341 OA
ATOM     47  C   LIG    1       -2.942  33.889  61.966  0.00  0.00    +0.279 C 
ATOM     48  C   LIG    1       -3.452  32.484  62.289  0.00  0.00    +0.201 C 
ATOM     53  C   LIG    1       -2.347  31.604  62.871  0.00  0.00    +0.179 C 
BRANCH  48  49
ATOM     49  O   LIG    1       -4.536  32.551  63.209  0.00  0.00    -0.384 OA
ATOM     50  H   LIG    1       -4.570  33.458  63.556  0.00  0.00    +0.210 HD
ENDBRANCH  48  49
BRANCH  47  51
ATOM     51  O   LIG    1       -2.689  34.663  63.137  0.00  0.00    -0.365 OA
ATOM     52  H   LIG    1       -2.067  34.158  63.688  0.00  0.00    +0.213 HD
ENDBRANCH  47  51
BRANCH  53  54
ATOM     54  O   LIG    1       -2.805  30.250  62.917  0.00  0.00    -0.386 OA
ATOM     55  H   LIG    1       -2.699  29.863  62.031  0.00  0.00    +0.210 HD
ENDBRANCH  53  54
BRANCH  42  43
ATOM     43  C   LIG    1        0.447  33.184  60.674  0.00  0.00    +0.190 C 
BRANCH  43  44
ATOM     44  O   LIG    1        0.660  31.892  60.135  0.00  0.00    -0.392 OA
ATOM     45  H   LIG    1        1.572  31.870  59.797  0.00  0.00    +0.210 HD
ENDBRANCH  43  44
ENDBRANCH  42  43
ENDBRANCH  40  41
ENDBRANCH  36  40
ENDBRANCH   1  30
TORSDOF 22
ENDMDL
