REMARK  Name = 159278
REMARK                            x       y       z     vdW  Elec       q    Type
REMARK                         _______ _______ _______ _____ _____    ______ ____
ROOT
ATOM      1  O   LIG    1        8.462  94.730 100.335  0.00  0.00    -0.341 OA
ATOM      2  C   LIG    1        7.939  93.965 101.419  0.00  0.00    +0.282 C 
ATOM      3  C   LIG    1        6.930  92.936 100.909  0.00  0.00    +0.201 C 
ATOM      4  C   LIG    1        7.532  92.064  99.806  0.00  0.00    +0.179 C 
ATOM      5  C   LIG    1        8.224  92.918  98.743  0.00  0.00    +0.177 C 
ATOM     23  C   LIG    1        9.173  93.929  99.391  0.00  0.00    +0.178 C 
ENDROOT
BRANCH   5   6
ATOM      6  O   LIG    1        8.964  92.072  97.867  0.00  0.00    -0.386 OA
ATOM      7  H   LIG    1        8.402  91.312  97.638  0.00  0.00    +0.210 HD
ENDBRANCH   5   6
BRANCH   4   8
ATOM      8  O   LIG    1        6.495  91.320  99.168  0.00  0.00    -0.386 OA
ATOM      9  H   LIG    1        6.875  90.916  98.369  0.00  0.00    +0.210 HD
ENDBRANCH   4   8
BRANCH   3  10
ATOM     10  O   LIG    1        6.542  92.108 102.006  0.00  0.00    -0.384 OA
ATOM     11  H   LIG    1        6.350  91.220 101.661  0.00  0.00    +0.210 HD
ENDBRANCH   3  10
BRANCH   2  12
ATOM     12  O   LIG    1        7.263  94.825 102.335  0.00  0.00    -0.348 OA
BRANCH  12  13
ATOM     13  C   LIG    1        6.932  96.066 101.729  0.00  0.00    +0.168 C 
BRANCH  13  14
ATOM     14  C   LIG    1        5.482  96.420 102.039  0.00  0.00    +0.063 C 
BRANCH  14  15
ATOM     15  C   LIG    1        4.813  95.386 102.913  0.00  0.00    -0.045 A 
ATOM     16  C   LIG    1        4.370  94.202 102.346  0.00  0.00    +0.007 A 
ATOM     17  C   LIG    1        3.752  93.246 103.152  0.00  0.00    +0.045 A 
ATOM     18  C   LIG    1        3.586  93.488 104.515  0.00  0.00    +0.117 A 
ATOM     19  C   LIG    1        4.037  94.685 105.073  0.00  0.00    +0.045 A 
ATOM     22  C   LIG    1        4.655  95.640 104.265  0.00  0.00    +0.007 A 
BRANCH  18  20
ATOM     20  O   LIG    1        2.983  92.556 105.304  0.00  0.00    -0.507 OA
ATOM     21  H   LIG    1        3.179  92.757 106.235  0.00  0.00    +0.292 HD
ENDBRANCH  18  20
ENDBRANCH  14  15
ENDBRANCH  13  14
ENDBRANCH  12  13
ENDBRANCH   2  12
BRANCH  23  24
ATOM     24  C   LIG    1        9.786  94.870  98.359  0.00  0.00    +0.190 C 
BRANCH  24  25
ATOM     25  O   LIG    1        9.404  96.196  98.675  0.00  0.00    -0.392 OA
ATOM     26  H   LIG    1        8.926  96.171  99.521  0.00  0.00    +0.210 HD
ENDBRANCH  24  25
ENDBRANCH  23  24
TORSDOF 10
