REMARK  Name = 159278
REMARK                            x       y       z     vdW  Elec       q    Type
REMARK                         _______ _______ _______ _____ _____    ______ ____
ROOT
ATOM      1  O   LIG    1        8.320  94.824 101.235  0.00  0.00    -0.341 OA
ATOM      2  C   LIG    1        7.975  93.470 101.523  0.00  0.00    +0.282 C 
ATOM      3  C   LIG    1        7.681  92.707 100.232  0.00  0.00    +0.201 C 
ATOM      4  C   LIG    1        8.839  92.824  99.240  0.00  0.00    +0.179 C 
ATOM      5  C   LIG    1        9.285  94.278  99.080  0.00  0.00    +0.177 C 
ATOM     23  C   LIG    1        9.505  94.932 100.446  0.00  0.00    +0.178 C 
ENDROOT
BRANCH   5   6
ATOM      6  O   LIG    1       10.500  94.319  98.337  0.00  0.00    -0.386 OA
ATOM      7  H   LIG    1       10.442  95.056  97.705  0.00  0.00    +0.210 HD
ENDBRANCH   5   6
BRANCH   4   8
ATOM      8  O   LIG    1        8.419  92.348  97.961  0.00  0.00    -0.386 OA
ATOM      9  H   LIG    1        7.745  91.663  98.111  0.00  0.00    +0.210 HD
ENDBRANCH   4   8
BRANCH   3  10
ATOM     10  O   LIG    1        7.478  91.332 100.561  0.00  0.00    -0.384 OA
ATOM     11  H   LIG    1        6.941  91.292 101.370  0.00  0.00    +0.210 HD
ENDBRANCH   3  10
BRANCH   2  12
ATOM     12  O   LIG    1        6.800  93.433 102.332  0.00  0.00    -0.348 OA
BRANCH  12  13
ATOM     13  C   LIG    1        6.283  94.737 102.550  0.00  0.00    +0.168 C 
BRANCH  13  14
ATOM     14  C   LIG    1        4.898  94.854 101.925  0.00  0.00    +0.063 C 
BRANCH  14  15
ATOM     15  C   LIG    1        4.242  93.508 101.728  0.00  0.00    -0.045 A 
ATOM     16  C   LIG    1        4.485  92.800 100.561  0.00  0.00    +0.007 A 
ATOM     17  C   LIG    1        3.879  91.557 100.378  0.00  0.00    +0.045 A 
ATOM     18  C   LIG    1        3.041  91.038 101.363  0.00  0.00    +0.117 A 
ATOM     19  C   LIG    1        2.806  91.763 102.532  0.00  0.00    +0.045 A 
ATOM     22  C   LIG    1        3.412  93.006 102.715  0.00  0.00    +0.007 A 
BRANCH  18  20
ATOM     20  O   LIG    1        2.450  89.825 101.185  0.00  0.00    -0.507 OA
ATOM     21  H   LIG    1        3.010  89.284 100.602  0.00  0.00    +0.292 HD
ENDBRANCH  18  20
ENDBRANCH  14  15
ENDBRANCH  13  14
ENDBRANCH  12  13
ENDBRANCH   2  12
BRANCH  23  24
ATOM     24  C   LIG    1        9.837  96.414 100.316  0.00  0.00    +0.190 C 
BRANCH  24  25
ATOM     25  O   LIG    1        9.854  96.755  98.942  0.00  0.00    -0.392 OA
ATOM     26  H   LIG    1       10.719  96.494  98.585  0.00  0.00    +0.210 HD
ENDBRANCH  24  25
ENDBRANCH  23  24
TORSDOF 10
