REMARK  Name = 159278
REMARK                            x       y       z     vdW  Elec       q    Type
REMARK                         _______ _______ _______ _____ _____    ______ ____
ROOT
ATOM      1  O   LIG    1        5.463  93.126 101.544  0.00  0.00    -0.341 OA
ATOM      2  C   LIG    1        6.194  94.071 102.323  0.00  0.00    +0.282 C 
ATOM      3  C   LIG    1        5.244  95.069 102.984  0.00  0.00    +0.201 C 
ATOM      4  C   LIG    1        4.157  94.355 103.788  0.00  0.00    +0.179 C 
ATOM      5  C   LIG    1        3.505  93.241 102.968  0.00  0.00    +0.177 C 
ATOM     23  C   LIG    1        4.568  92.341 102.333  0.00  0.00    +0.178 C 
ENDROOT
BRANCH   5   6
ATOM      6  O   LIG    1        2.671  92.457 103.818  0.00  0.00    -0.386 OA
ATOM      7  H   LIG    1        2.470  91.625 103.357  0.00  0.00    +0.210 HD
ENDBRANCH   5   6
BRANCH   4   8
ATOM      8  O   LIG    1        3.140  95.290 104.149  0.00  0.00    -0.386 OA
ATOM      9  H   LIG    1        2.292  94.814 104.147  0.00  0.00    +0.210 HD
ENDBRANCH   4   8
BRANCH   3  10
ATOM     10  O   LIG    1        6.007  95.903 103.857  0.00  0.00    -0.384 OA
ATOM     11  H   LIG    1        6.904  95.982 103.491  0.00  0.00    +0.210 HD
ENDBRANCH   3  10
BRANCH   2  12
ATOM     12  O   LIG    1        7.085  94.803 101.482  0.00  0.00    -0.348 OA
BRANCH  12  13
ATOM     13  C   LIG    1        8.145  93.982 101.015  0.00  0.00    +0.168 C 
BRANCH  13  14
ATOM     14  C   LIG    1        7.728  93.286  99.725  0.00  0.00    +0.063 C 
BRANCH  14  15
ATOM     15  C   LIG    1        7.642  94.242  98.559  0.00  0.00    -0.045 A 
ATOM     16  C   LIG    1        6.859  93.909  97.465  0.00  0.00    +0.007 A 
ATOM     17  C   LIG    1        6.779  94.791  96.387  0.00  0.00    +0.045 A 
ATOM     18  C   LIG    1        7.483  95.994  96.418  0.00  0.00    +0.117 A 
ATOM     19  C   LIG    1        8.268  96.315  97.527  0.00  0.00    +0.045 A 
ATOM     22  C   LIG    1        8.347  95.433  98.604  0.00  0.00    +0.007 A 
BRANCH  18  20
ATOM     20  O   LIG    1        7.406  96.856  95.367  0.00  0.00    -0.507 OA
ATOM     21  H   LIG    1        7.486  96.351  94.540  0.00  0.00    +0.292 HD
ENDBRANCH  18  20
ENDBRANCH  14  15
ENDBRANCH  13  14
ENDBRANCH  12  13
ENDBRANCH   2  12
BRANCH  23  24
ATOM     24  C   LIG    1        3.946  91.293 101.416  0.00  0.00    +0.190 C 
BRANCH  24  25
ATOM     25  O   LIG    1        2.540  91.458 101.430  0.00  0.00    -0.392 OA
ATOM     26  H   LIG    1        2.355  92.412 101.423  0.00  0.00    +0.210 HD
ENDBRANCH  24  25
ENDBRANCH  23  24
TORSDOF 10
