REMARK  Name = 159278
REMARK                            x       y       z     vdW  Elec       q    Type
REMARK                         _______ _______ _______ _____ _____    ______ ____
ROOT
ATOM      1  O   LIG    1        8.106  94.822 101.200  0.00  0.00    -0.341 OA
ATOM      2  C   LIG    1        7.775  93.462 101.474  0.00  0.00    +0.282 C 
ATOM      3  C   LIG    1        7.582  92.686 100.171  0.00  0.00    +0.201 C 
ATOM      4  C   LIG    1        8.798  92.825  99.255  0.00  0.00    +0.179 C 
ATOM      5  C   LIG    1        9.220  94.288  99.115  0.00  0.00    +0.177 C 
ATOM     23  C   LIG    1        9.337  94.954 100.488  0.00  0.00    +0.178 C 
ENDROOT
BRANCH   5   6
ATOM      6  O   LIG    1       10.479  94.354  98.450  0.00  0.00    -0.386 OA
ATOM      7  H   LIG    1       10.582  93.546  97.919  0.00  0.00    +0.210 HD
ENDBRANCH   5   6
BRANCH   4   8
ATOM      8  O   LIG    1        8.473  92.333  97.954  0.00  0.00    -0.386 OA
ATOM      9  H   LIG    1        7.791  91.648  98.064  0.00  0.00    +0.210 HD
ENDBRANCH   4   8
BRANCH   3  10
ATOM     10  O   LIG    1        7.390  91.309 100.495  0.00  0.00    -0.384 OA
ATOM     11  H   LIG    1        6.985  91.260 101.378  0.00  0.00    +0.210 HD
ENDBRANCH   3  10
BRANCH   2  12
ATOM     12  O   LIG    1        6.552  93.402 102.205  0.00  0.00    -0.348 OA
BRANCH  12  13
ATOM     13  C   LIG    1        6.089  94.701 102.546  0.00  0.00    +0.168 C 
BRANCH  13  14
ATOM     14  C   LIG    1        4.572  94.761 102.406  0.00  0.00    +0.063 C 
BRANCH  14  15
ATOM     15  C   LIG    1        3.979  93.427 102.021  0.00  0.00    -0.045 A 
ATOM     16  C   LIG    1        3.053  92.828 102.861  0.00  0.00    +0.007 A 
ATOM     17  C   LIG    1        2.504  91.596 102.506  0.00  0.00    +0.045 A 
ATOM     18  C   LIG    1        2.886  90.980 101.316  0.00  0.00    +0.117 A 
ATOM     19  C   LIG    1        3.819  91.595 100.480  0.00  0.00    +0.045 A 
ATOM     22  C   LIG    1        4.368  92.827 100.835  0.00  0.00    +0.007 A 
BRANCH  18  20
ATOM     20  O   LIG    1        2.351  89.778 100.968  0.00  0.00    -0.507 OA
ATOM     21  H   LIG    1        2.967  89.319 100.371  0.00  0.00    +0.292 HD
ENDBRANCH  18  20
ENDBRANCH  14  15
ENDBRANCH  13  14
ENDBRANCH  12  13
ENDBRANCH   2  12
BRANCH  23  24
ATOM     24  C   LIG    1        9.642  96.443 100.370  0.00  0.00    +0.190 C 
BRANCH  24  25
ATOM     25  O   LIG    1        8.665  97.163 101.097  0.00  0.00    -0.392 OA
ATOM     26  H   LIG    1        7.944  96.547 101.311  0.00  0.00    +0.210 HD
ENDBRANCH  24  25
ENDBRANCH  23  24
TORSDOF 10
