REMARK  Name = 159278
REMARK                            x       y       z     vdW  Elec       q    Type
REMARK                         _______ _______ _______ _____ _____    ______ ____
ROOT
ATOM      1  O   LIG    1        8.434  94.620 100.653  0.00  0.00    -0.341 OA
ATOM      2  C   LIG    1        7.310  94.168 101.405  0.00  0.00    +0.282 C 
ATOM      3  C   LIG    1        6.174  93.751 100.472  0.00  0.00    +0.201 C 
ATOM      4  C   LIG    1        6.649  92.725  99.442  0.00  0.00    +0.179 C 
ATOM      5  C   LIG    1        7.947  93.175  98.770  0.00  0.00    +0.177 C 
ATOM     23  C   LIG    1        8.980  93.600  99.815  0.00  0.00    +0.178 C 
ENDROOT
BRANCH   5   6
ATOM      6  O   LIG    1        8.474  92.100  97.997  0.00  0.00    -0.386 OA
ATOM      7  H   LIG    1        7.765  91.446  97.868  0.00  0.00    +0.210 HD
ENDBRANCH   5   6
BRANCH   4   8
ATOM      8  O   LIG    1        5.655  92.575  98.427  0.00  0.00    -0.386 OA
ATOM      9  H   LIG    1        6.108  92.287  97.616  0.00  0.00    +0.210 HD
ENDBRANCH   4   8
BRANCH   3  10
ATOM     10  O   LIG    1        5.132  93.180 101.262  0.00  0.00    -0.384 OA
ATOM     11  H   LIG    1        4.767  92.420 100.778  0.00  0.00    +0.210 HD
ENDBRANCH   3  10
BRANCH   2  12
ATOM     12  O   LIG    1        6.830  95.223 102.236  0.00  0.00    -0.348 OA
BRANCH  12  13
ATOM     13  C   LIG    1        6.105  94.717 103.347  0.00  0.00    +0.168 C 
BRANCH  13  14
ATOM     14  C   LIG    1        4.694  95.293 103.347  0.00  0.00    +0.063 C 
BRANCH  14  15
ATOM     15  C   LIG    1        3.985  95.074 104.662  0.00  0.00    -0.045 A 
ATOM     16  C   LIG    1        3.634  93.787 105.038  0.00  0.00    +0.007 A 
ATOM     17  C   LIG    1        2.979  93.585 106.253  0.00  0.00    +0.045 A 
ATOM     18  C   LIG    1        2.684  94.671 107.075  0.00  0.00    +0.117 A 
ATOM     19  C   LIG    1        3.043  95.961 106.683  0.00  0.00    +0.045 A 
ATOM     22  C   LIG    1        3.698  96.163 105.468  0.00  0.00    +0.007 A 
BRANCH  18  20
ATOM     20  O   LIG    1        2.045  94.474 108.261  0.00  0.00    -0.507 OA
ATOM     21  H   LIG    1        1.100  94.676 108.147  0.00  0.00    +0.292 HD
ENDBRANCH  18  20
ENDBRANCH  14  15
ENDBRANCH  13  14
ENDBRANCH  12  13
ENDBRANCH   2  12
BRANCH  23  24
ATOM     24  C   LIG    1       10.240  94.163  99.168  0.00  0.00    +0.190 C 
BRANCH  24  25
ATOM     25  O   LIG    1       10.829  95.093 100.058  0.00  0.00    -0.392 OA
ATOM     26  H   LIG    1       10.609  94.814 100.963  0.00  0.00    +0.210 HD
ENDBRANCH  24  25
ENDBRANCH  23  24
TORSDOF 10
