REMARK  Name = 159278
REMARK                            x       y       z     vdW  Elec       q    Type
REMARK                         _______ _______ _______ _____ _____    ______ ____
ROOT
ATOM      1  O   LIG    1        5.843  95.907 103.216  0.00  0.00    -0.341 OA
ATOM      2  C   LIG    1        6.087  94.959 102.178  0.00  0.00    +0.282 C 
ATOM      3  C   LIG    1        5.670  93.558 102.625  0.00  0.00    +0.201 C 
ATOM      4  C   LIG    1        4.222  93.538 103.116  0.00  0.00    +0.179 C 
ATOM      5  C   LIG    1        3.959  94.671 104.109  0.00  0.00    +0.177 C 
ATOM     23  C   LIG    1        4.458  96.007 103.554  0.00  0.00    +0.178 C 
ENDROOT
BRANCH   5   6
ATOM      6  O   LIG    1        2.559  94.760 104.362  0.00  0.00    -0.386 OA
ATOM      7  H   LIG    1        2.161  93.897 104.157  0.00  0.00    +0.210 HD
ENDBRANCH   5   6
BRANCH   4   8
ATOM      8  O   LIG    1        3.962  92.301 103.779  0.00  0.00    -0.386 OA
ATOM      9  H   LIG    1        4.473  91.611 103.321  0.00  0.00    +0.210 HD
ENDBRANCH   4   8
BRANCH   3  10
ATOM     10  O   LIG    1        5.804  92.676 101.511  0.00  0.00    -0.384 OA
ATOM     11  H   LIG    1        5.714  91.763 101.836  0.00  0.00    +0.210 HD
ENDBRANCH   3  10
BRANCH   2  12
ATOM     12  O   LIG    1        7.480  94.927 101.873  0.00  0.00    -0.348 OA
BRANCH  12  13
ATOM     13  C   LIG    1        7.896  96.123 101.232  0.00  0.00    +0.168 C 
BRANCH  13  14
ATOM     14  C   LIG    1        7.958  95.905  99.724  0.00  0.00    +0.063 C 
BRANCH  14  15
ATOM     15  C   LIG    1        8.231  94.465  99.364  0.00  0.00    -0.045 A 
ATOM     16  C   LIG    1        7.166  93.592  99.203  0.00  0.00    +0.007 A 
ATOM     17  C   LIG    1        7.417  92.261  98.870  0.00  0.00    +0.045 A 
ATOM     18  C   LIG    1        8.729  91.821  98.702  0.00  0.00    +0.117 A 
ATOM     19  C   LIG    1        9.791  92.711  98.867  0.00  0.00    +0.045 A 
ATOM     22  C   LIG    1        9.539  94.042  99.200  0.00  0.00    +0.007 A 
BRANCH  18  20
ATOM     20  O   LIG    1        8.976  90.522  98.377  0.00  0.00    -0.507 OA
ATOM     21  H   LIG    1        8.218  90.173  97.876  0.00  0.00    +0.292 HD
ENDBRANCH  18  20
ENDBRANCH  14  15
ENDBRANCH  13  14
ENDBRANCH  12  13
ENDBRANCH   2  12
BRANCH  23  24
ATOM     24  C   LIG    1        4.314  97.132 104.573  0.00  0.00    +0.190 C 
BRANCH  24  25
ATOM     25  O   LIG    1        5.574  97.753 104.741  0.00  0.00    -0.392 OA
ATOM     26  H   LIG    1        6.241  97.188 104.315  0.00  0.00    +0.210 HD
ENDBRANCH  24  25
ENDBRANCH  23  24
TORSDOF 10
