REMARK  Name = 159278
REMARK                            x       y       z     vdW  Elec       q    Type
REMARK                         _______ _______ _______ _____ _____    ______ ____
ROOT
ATOM      1  O   LIG    1       11.832  78.775 132.926  0.00  0.00    -0.341 OA
ATOM      2  C   LIG    1       13.068  79.408 132.598  0.00  0.00    +0.282 C 
ATOM      3  C   LIG    1       13.408  79.186 131.125  0.00  0.00    +0.201 C 
ATOM      4  C   LIG    1       12.260  79.625 130.216  0.00  0.00    +0.179 C 
ATOM      5  C   LIG    1       10.925  79.053 130.696  0.00  0.00    +0.177 C 
ATOM     23  C   LIG    1       10.730  79.311 132.191  0.00  0.00    +0.178 C 
ENDROOT
BRANCH   5   6
ATOM      6  O   LIG    1        9.862  79.665 129.970  0.00  0.00    -0.386 OA
ATOM      7  H   LIG    1       10.237  80.060 129.164  0.00  0.00    +0.210 HD
ENDBRANCH   5   6
BRANCH   4   8
ATOM      8  O   LIG    1       12.493  79.148 128.890  0.00  0.00    -0.386 OA
ATOM      9  H   LIG    1       13.456  79.083 128.769  0.00  0.00    +0.210 HD
ENDBRANCH   4   8
BRANCH   3  10
ATOM     10  O   LIG    1       14.574  79.949 130.815  0.00  0.00    -0.384 OA
ATOM     11  H   LIG    1       14.471  80.307 129.917  0.00  0.00    +0.210 HD
ENDBRANCH   3  10
BRANCH   2  12
ATOM     12  O   LIG    1       14.119  78.846 133.381  0.00  0.00    -0.348 OA
BRANCH  12  13
ATOM     13  C   LIG    1       14.615  77.650 132.798  0.00  0.00    +0.168 C 
BRANCH  13  14
ATOM     14  C   LIG    1       15.874  77.202 133.532  0.00  0.00    +0.063 C 
BRANCH  14  15
ATOM     15  C   LIG    1       15.860  75.726 133.847  0.00  0.00    -0.045 A 
ATOM     16  C   LIG    1       16.646  74.865 133.098  0.00  0.00    +0.007 A 
ATOM     17  C   LIG    1       16.634  73.501 133.389  0.00  0.00    +0.045 A 
ATOM     18  C   LIG    1       15.837  73.016 134.425  0.00  0.00    +0.117 A 
ATOM     19  C   LIG    1       15.050  73.896 135.170  0.00  0.00    +0.045 A 
ATOM     22  C   LIG    1       15.063  75.260 134.879  0.00  0.00    +0.007 A 
BRANCH  18  20
ATOM     20  O   LIG    1       15.824  71.685 134.709  0.00  0.00    -0.507 OA
ATOM     21  H   LIG    1       16.587  71.477 135.276  0.00  0.00    +0.292 HD
ENDBRANCH  18  20
ENDBRANCH  14  15
ENDBRANCH  13  14
ENDBRANCH  12  13
ENDBRANCH   2  12
BRANCH  23  24
ATOM     24  C   LIG    1        9.462  78.648 132.718  0.00  0.00    +0.190 C 
BRANCH  24  25
ATOM     25  O   LIG    1        9.830  77.628 133.628  0.00  0.00    -0.392 OA
ATOM     26  H   LIG    1       10.798  77.645 133.714  0.00  0.00    +0.210 HD
ENDBRANCH  24  25
ENDBRANCH  23  24
TORSDOF 10
