REMARK  Name = 159278
REMARK                            x       y       z     vdW  Elec       q    Type
REMARK                         _______ _______ _______ _____ _____    ______ ____
ROOT
ATOM      1  O   LIG    1       12.407  78.995 132.609  0.00  0.00    -0.341 OA
ATOM      2  C   LIG    1       12.078  78.880 133.992  0.00  0.00    +0.282 C 
ATOM      3  C   LIG    1       12.726  77.633 134.594  0.00  0.00    +0.201 C 
ATOM      4  C   LIG    1       14.234  77.612 134.340  0.00  0.00    +0.179 C 
ATOM      5  C   LIG    1       14.552  77.899 132.872  0.00  0.00    +0.177 C 
ATOM     23  C   LIG    1       13.811  79.147 132.390  0.00  0.00    +0.178 C 
ENDROOT
BRANCH   5   6
ATOM      6  O   LIG    1       15.956  78.099 132.725  0.00  0.00    -0.386 OA
ATOM      7  H   LIG    1       16.244  77.631 131.922  0.00  0.00    +0.210 HD
ENDBRANCH   5   6
BRANCH   4   8
ATOM      8  O   LIG    1       14.752  76.320 134.660  0.00  0.00    -0.386 OA
ATOM      9  H   LIG    1       15.506  76.154 134.068  0.00  0.00    +0.210 HD
ENDBRANCH   4   8
BRANCH   3  10
ATOM     10  O   LIG    1       12.483  77.637 136.000  0.00  0.00    -0.384 OA
ATOM     11  H   LIG    1       11.601  78.016 136.154  0.00  0.00    +0.210 HD
ENDBRANCH   3  10
BRANCH   2  12
ATOM     12  O   LIG    1       10.665  78.756 134.143  0.00  0.00    -0.348 OA
BRANCH  12  13
ATOM     13  C   LIG    1       10.159  77.663 133.391  0.00  0.00    +0.168 C 
BRANCH  13  14
ATOM     14  C   LIG    1        8.703  77.920 133.024  0.00  0.00    +0.063 C 
BRANCH  14  15
ATOM     15  C   LIG    1        8.565  78.777 131.789  0.00  0.00    -0.045 A 
ATOM     16  C   LIG    1        9.707  79.209 131.132  0.00  0.00    +0.007 A 
ATOM     17  C   LIG    1        9.581  80.001 129.990  0.00  0.00    +0.045 A 
ATOM     18  C   LIG    1        8.316  80.350 129.521  0.00  0.00    +0.117 A 
ATOM     19  C   LIG    1        7.175  79.908 130.193  0.00  0.00    +0.045 A 
ATOM     22  C   LIG    1        7.302  79.116 131.334  0.00  0.00    +0.007 A 
BRANCH  18  20
ATOM     20  O   LIG    1        8.192  81.123 128.407  0.00  0.00    -0.507 OA
ATOM     21  H   LIG    1        9.062  81.204 127.981  0.00  0.00    +0.292 HD
ENDBRANCH  18  20
ENDBRANCH  14  15
ENDBRANCH  13  14
ENDBRANCH  12  13
ENDBRANCH   2  12
BRANCH  23  24
ATOM     24  C   LIG    1       14.019  79.387 130.898  0.00  0.00    +0.190 C 
BRANCH  24  25
ATOM     25  O   LIG    1       12.840  79.959 130.364  0.00  0.00    -0.392 OA
ATOM     26  H   LIG    1       12.216  80.088 131.098  0.00  0.00    +0.210 HD
ENDBRANCH  24  25
ENDBRANCH  23  24
TORSDOF 10
