REMARK  Name = 159278
REMARK                            x       y       z     vdW  Elec       q    Type
REMARK                         _______ _______ _______ _____ _____    ______ ____
ROOT
ATOM      1  O   LIG    1       16.331  72.637 133.397  0.00  0.00    -0.341 OA
ATOM      2  C   LIG    1       15.105  73.004 134.027  0.00  0.00    +0.282 C 
ATOM      3  C   LIG    1       15.302  74.244 134.899  0.00  0.00    +0.201 C 
ATOM      4  C   LIG    1       15.925  75.391 134.102  0.00  0.00    +0.179 C 
ATOM      5  C   LIG    1       17.146  74.917 133.313  0.00  0.00    +0.177 C 
ATOM     23  C   LIG    1       16.821  73.651 132.518  0.00  0.00    +0.178 C 
ENDROOT
BRANCH   5   6
ATOM      6  O   LIG    1       17.554  75.946 132.414  0.00  0.00    -0.386 OA
ATOM      7  H   LIG    1       17.374  75.642 131.508  0.00  0.00    +0.210 HD
ENDBRANCH   5   6
BRANCH   4   8
ATOM      8  O   LIG    1       16.350  76.417 135.000  0.00  0.00    -0.386 OA
ATOM      9  H   LIG    1       16.982  76.980 134.521  0.00  0.00    +0.210 HD
ENDBRANCH   4   8
BRANCH   3  10
ATOM     10  O   LIG    1       14.026  74.650 135.394  0.00  0.00    -0.384 OA
ATOM     11  H   LIG    1       13.545  73.854 135.677  0.00  0.00    +0.210 HD
ENDBRANCH   3  10
BRANCH   2  12
ATOM     12  O   LIG    1       14.659  71.942 134.868  0.00  0.00    -0.348 OA
BRANCH  12  13
ATOM     13  C   LIG    1       15.612  70.892 134.924  0.00  0.00    +0.168 C 
BRANCH  13  14
ATOM     14  C   LIG    1       15.061  69.656 134.222  0.00  0.00    +0.063 C 
BRANCH  14  15
ATOM     15  C   LIG    1       15.754  69.385 132.909  0.00  0.00    -0.045 A 
ATOM     16  C   LIG    1       15.067  68.724 131.903  0.00  0.00    +0.007 A 
ATOM     17  C   LIG    1       15.707  68.473 130.689  0.00  0.00    +0.045 A 
ATOM     18  C   LIG    1       17.025  68.886 130.498  0.00  0.00    +0.117 A 
ATOM     19  C   LIG    1       17.704  69.550 131.520  0.00  0.00    +0.045 A 
ATOM     22  C   LIG    1       17.063  69.801 132.733  0.00  0.00    +0.007 A 
BRANCH  18  20
ATOM     20  O   LIG    1       17.651  68.642 129.313  0.00  0.00    -0.507 OA
ATOM     21  H   LIG    1       17.566  67.696 129.102  0.00  0.00    +0.292 HD
ENDBRANCH  18  20
ENDBRANCH  14  15
ENDBRANCH  13  14
ENDBRANCH  12  13
ENDBRANCH   2  12
BRANCH  23  24
ATOM     24  C   LIG    1       18.054  73.093 131.816  0.00  0.00    +0.190 C 
BRANCH  24  25
ATOM     25  O   LIG    1       18.344  73.908 130.696  0.00  0.00    -0.392 OA
ATOM     26  H   LIG    1       17.717  74.650 130.702  0.00  0.00    +0.210 HD
ENDBRANCH  24  25
ENDBRANCH  23  24
TORSDOF 10
