REMARK  Name = 159278
REMARK                            x       y       z     vdW  Elec       q    Type
REMARK                         _______ _______ _______ _____ _____    ______ ____
ROOT
ATOM      1  O   LIG    1       20.951  80.314 128.039  0.00  0.00    -0.341 OA
ATOM      2  C   LIG    1       22.218  80.308 127.383  0.00  0.00    +0.282 C 
ATOM      3  C   LIG    1       22.065  80.720 125.919  0.00  0.00    +0.201 C 
ATOM      4  C   LIG    1       21.339  82.060 125.791  0.00  0.00    +0.179 C 
ATOM      5  C   LIG    1       20.066  82.083 126.638  0.00  0.00    +0.177 C 
ATOM     23  C   LIG    1       20.353  81.611 128.065  0.00  0.00    +0.178 C 
ENDROOT
BRANCH   5   6
ATOM      6  O   LIG    1       19.548  83.410 126.675  0.00  0.00    -0.386 OA
ATOM      7  H   LIG    1       18.604  83.359 126.903  0.00  0.00    +0.210 HD
ENDBRANCH   5   6
BRANCH   4   8
ATOM      8  O   LIG    1       20.967  82.272 124.429  0.00  0.00    -0.386 OA
ATOM      9  H   LIG    1       21.339  81.540 123.908  0.00  0.00    +0.210 HD
ENDBRANCH   4   8
BRANCH   3  10
ATOM     10  O   LIG    1       23.368  80.832 125.347  0.00  0.00    -0.384 OA
ATOM     11  H   LIG    1       23.942  80.174 125.774  0.00  0.00    +0.210 HD
ENDBRANCH   3  10
BRANCH   2  12
ATOM     12  O   LIG    1       22.769  78.993 127.413  0.00  0.00    -0.348 OA
BRANCH  12  13
ATOM     13  C   LIG    1       24.096  79.001 127.917  0.00  0.00    +0.168 C 
BRANCH  13  14
ATOM     14  C   LIG    1       24.177  78.137 129.170  0.00  0.00    +0.063 C 
BRANCH  14  15
ATOM     15  C   LIG    1       23.664  78.853 130.396  0.00  0.00    -0.045 A 
ATOM     16  C   LIG    1       23.309  80.190 130.302  0.00  0.00    +0.007 A 
ATOM     17  C   LIG    1       22.834  80.853 131.433  0.00  0.00    +0.045 A 
ATOM     18  C   LIG    1       22.720  80.170 132.644  0.00  0.00    +0.117 A 
ATOM     19  C   LIG    1       23.081  78.825 132.723  0.00  0.00    +0.045 A 
ATOM     22  C   LIG    1       23.556  78.163 131.591  0.00  0.00    +0.007 A 
BRANCH  18  20
ATOM     20  O   LIG    1       22.257  80.816 133.749  0.00  0.00    -0.507 OA
ATOM     21  H   LIG    1       22.988  81.316 134.151  0.00  0.00    +0.292 HD
ENDBRANCH  18  20
ENDBRANCH  14  15
ENDBRANCH  13  14
ENDBRANCH  12  13
ENDBRANCH   2  12
BRANCH  23  24
ATOM     24  C   LIG    1       19.079  81.513 128.895  0.00  0.00    +0.190 C 
BRANCH  24  25
ATOM     25  O   LIG    1       18.485  82.796 128.967  0.00  0.00    -0.392 OA
ATOM     26  H   LIG    1       18.058  82.971 128.111  0.00  0.00    +0.210 HD
ENDBRANCH  24  25
ENDBRANCH  23  24
TORSDOF 10
