REMARK  Name = 159278
REMARK                            x       y       z     vdW  Elec       q    Type
REMARK                         _______ _______ _______ _____ _____    ______ ____
ROOT
ATOM      1  O   LIG    1       20.540  81.151 127.454  0.00  0.00    -0.341 OA
ATOM      2  C   LIG    1       21.459  80.868 128.507  0.00  0.00    +0.282 C 
ATOM      3  C   LIG    1       22.627  80.029 127.988  0.00  0.00    +0.201 C 
ATOM      4  C   LIG    1       23.295  80.690 126.781  0.00  0.00    +0.179 C 
ATOM      5  C   LIG    1       22.258  81.124 125.744  0.00  0.00    +0.177 C 
ATOM     23  C   LIG    1       21.129  81.919 126.403  0.00  0.00    +0.178 C 
ENDROOT
BRANCH   5   6
ATOM      6  O   LIG    1       22.890  81.934 124.756  0.00  0.00    -0.386 OA
ATOM      7  H   LIG    1       22.229  82.151 124.077  0.00  0.00    +0.210 HD
ENDBRANCH   5   6
BRANCH   4   8
ATOM      8  O   LIG    1       24.180  79.760 126.158  0.00  0.00    -0.386 OA
ATOM      9  H   LIG    1       24.545  79.191 126.858  0.00  0.00    +0.210 HD
ENDBRANCH   4   8
BRANCH   3  10
ATOM     10  O   LIG    1       23.582  79.891 129.040  0.00  0.00    -0.384 OA
ATOM     11  H   LIG    1       23.098  79.829 129.881  0.00  0.00    +0.210 HD
ENDBRANCH   3  10
BRANCH   2  12
ATOM     12  O   LIG    1       20.804  80.122 129.531  0.00  0.00    -0.348 OA
BRANCH  12  13
ATOM     13  C   LIG    1       21.095  80.646 130.818  0.00  0.00    +0.168 C 
BRANCH  13  14
ATOM     14  C   LIG    1       19.975  81.580 131.259  0.00  0.00    +0.063 C 
BRANCH  14  15
ATOM     15  C   LIG    1       18.619  80.921 131.196  0.00  0.00    -0.045 A 
ATOM     16  C   LIG    1       18.004  80.517 132.371  0.00  0.00    +0.007 A 
ATOM     17  C   LIG    1       16.751  79.908 132.313  0.00  0.00    +0.045 A 
ATOM     18  C   LIG    1       16.129  79.710 131.082  0.00  0.00    +0.117 A 
ATOM     19  C   LIG    1       16.759  80.121 129.907  0.00  0.00    +0.045 A 
ATOM     22  C   LIG    1       18.012  80.731 129.965  0.00  0.00    +0.007 A 
BRANCH  18  20
ATOM     20  O   LIG    1       14.905  79.115 131.024  0.00  0.00    -0.507 OA
ATOM     21  H   LIG    1       14.959  78.340 130.439  0.00  0.00    +0.292 HD
ENDBRANCH  18  20
ENDBRANCH  14  15
ENDBRANCH  13  14
ENDBRANCH  12  13
ENDBRANCH   2  12
BRANCH  23  24
ATOM     24  C   LIG    1       20.024  82.262 125.410  0.00  0.00    +0.190 C 
BRANCH  24  25
ATOM     25  O   LIG    1       20.562  83.106 124.409  0.00  0.00    -0.392 OA
ATOM     26  H   LIG    1       21.366  83.515 124.770  0.00  0.00    +0.210 HD
ENDBRANCH  24  25
ENDBRANCH  23  24
TORSDOF 10
