MODEL 1
REMARK VINA RESULT:      -7.4      0.000      0.000
REMARK  Name = 5280343
REMARK                            x       y       z     vdW  Elec       q    Type
REMARK                         _______ _______ _______ _____ _____    ______ ____
ROOT
ATOM      1  O   LIG    1       10.247  15.356  41.732  0.00  0.00    -0.451 OA
ATOM      2  C   LIG    1        9.682  16.235  42.644  0.00  0.00    +0.181 A 
ATOM      3  C   LIG    1       10.284  17.347  43.105  0.00  0.00    +0.208 A 
ATOM      4  C   LIG    1       11.638  17.687  42.604  0.00  0.00    +0.238 A 
ATOM      5  C   LIG    1       12.225  16.758  41.626  0.00  0.00    +0.109 A 
ATOM      6  C   LIG    1       13.494  16.991  41.091  0.00  0.00    +0.135 A 
ATOM      7  C   LIG    1       14.028  16.093  40.167  0.00  0.00    +0.091 A 
ATOM      8  C   LIG    1       13.298  14.968  39.779  0.00  0.00    +0.124 A 
ATOM      9  C   LIG    1       12.031  14.738  40.316  0.00  0.00    +0.092 A 
ATOM     14  O   LIG    1       12.235  18.686  42.984  0.00  0.00    -0.283 OA
ATOM     27  C   LIG    1       11.494  15.636  41.240  0.00  0.00    +0.147 A 
ENDROOT
BRANCH   2  17
ATOM     17  C   LIG    1        8.342  15.817  43.092  0.00  0.00    +0.025 A 
ATOM     18  C   LIG    1        7.371  15.469  42.153  0.00  0.00    +0.015 A 
ATOM     19  C   LIG    1        6.102  15.074  42.576  0.00  0.00    +0.050 A 
ATOM     20  C   LIG    1        5.804  15.027  43.938  0.00  0.00    +0.158 A 
ATOM     21  C   LIG    1        6.775  15.376  44.877  0.00  0.00    +0.159 A 
ATOM     26  C   LIG    1        8.044  15.770  44.453  0.00  0.00    +0.060 A 
BRANCH  21  22
ATOM     22  O   LIG    1        6.495  15.333  46.209  0.00  0.00    -0.503 OA
ATOM     23  H   LIG    1        7.027  14.640  46.634  0.00  0.00    +0.292 HD
ENDBRANCH  21  22
BRANCH  20  24
ATOM     24  O   LIG    1        4.560  14.642  44.339  0.00  0.00    -0.503 OA
ATOM     25  H   LIG    1        4.481  14.741  45.301  0.00  0.00    +0.292 HD
ENDBRANCH  20  24
ENDBRANCH   2  17
BRANCH   8  10
ATOM     10  O   LIG    1       13.823  14.094  38.878  0.00  0.00    -0.507 OA
ATOM     11  H   LIG    1       13.805  13.199  39.259  0.00  0.00    +0.292 HD
ENDBRANCH   8  10
BRANCH   6  12
ATOM     12  O   LIG    1       14.249  18.072  41.436  0.00  0.00    -0.506 OA
ATOM     13  H   LIG    1       13.708  18.876  41.446  0.00  0.00    +0.292 HD
ENDBRANCH   6  12
BRANCH   3  15
ATOM     15  O   LIG    1        9.709  18.183  44.037  0.00  0.00    -0.501 OA
ATOM     16  H   LIG    1        9.589  17.709  44.876  0.00  0.00    +0.292 HD
ENDBRANCH   3  15
TORSDOF 6
ENDMDL
MODEL 2
REMARK VINA RESULT:      -7.0     25.967     28.221
REMARK  Name = 5280343
REMARK                            x       y       z     vdW  Elec       q    Type
REMARK                         _______ _______ _______ _____ _____    ______ ____
ROOT
ATOM      1  O   LIG    1        2.163  32.106  64.003  0.00  0.00    -0.451 OA
ATOM      2  C   LIG    1        1.502  30.889  64.073  0.00  0.00    +0.181 A 
ATOM      3  C   LIG    1        1.818  29.897  64.925  0.00  0.00    +0.208 A 
ATOM      4  C   LIG    1        2.936  30.101  65.877  0.00  0.00    +0.238 A 
ATOM      5  C   LIG    1        3.625  31.398  65.807  0.00  0.00    +0.109 A 
ATOM      6  C   LIG    1        4.689  31.690  66.664  0.00  0.00    +0.135 A 
ATOM      7  C   LIG    1        5.326  32.928  66.575  0.00  0.00    +0.091 A 
ATOM      8  C   LIG    1        4.902  33.870  65.636  0.00  0.00    +0.124 A 
ATOM      9  C   LIG    1        3.839  33.575  64.782  0.00  0.00    +0.092 A 
ATOM     14  O   LIG    1        3.269  29.235  66.676  0.00  0.00    -0.283 OA
ATOM     27  C   LIG    1        3.200  32.337  64.869  0.00  0.00    +0.147 A 
ENDROOT
BRANCH   2  17
ATOM     17  C   LIG    1        0.411  30.771  63.089  0.00  0.00    +0.025 A 
ATOM     18  C   LIG    1        0.575  29.967  61.960  0.00  0.00    +0.015 A 
ATOM     19  C   LIG    1       -0.458  29.855  61.029  0.00  0.00    +0.050 A 
ATOM     20  C   LIG    1       -1.653  30.545  61.226  0.00  0.00    +0.158 A 
ATOM     21  C   LIG    1       -1.817  31.349  62.355  0.00  0.00    +0.159 A 
ATOM     26  C   LIG    1       -0.785  31.461  63.287  0.00  0.00    +0.060 A 
BRANCH  21  22
ATOM     22  O   LIG    1       -2.981  32.027  62.558  0.00  0.00    -0.503 OA
ATOM     23  H   LIG    1       -3.203  32.543  61.767  0.00  0.00    +0.292 HD
ENDBRANCH  21  22
BRANCH  20  24
ATOM     24  O   LIG    1       -2.654  30.430  60.308  0.00  0.00    -0.503 OA
ATOM     25  H   LIG    1       -3.342  29.836  60.648  0.00  0.00    +0.292 HD
ENDBRANCH  20  24
ENDBRANCH   2  17
BRANCH   8  10
ATOM     10  O   LIG    1        5.526  35.076  65.552  0.00  0.00    -0.507 OA
ATOM     11  H   LIG    1        6.459  34.933  65.318  0.00  0.00    +0.292 HD
ENDBRANCH   8  10
BRANCH   6  12
ATOM     12  O   LIG    1        5.144  30.807  67.597  0.00  0.00    -0.506 OA
ATOM     13  H   LIG    1        5.029  29.896  67.288  0.00  0.00    +0.292 HD
ENDBRANCH   6  12
BRANCH   3  15
ATOM     15  O   LIG    1        1.161  28.686  64.946  0.00  0.00    -0.501 OA
ATOM     16  H   LIG    1        0.592  28.633  65.731  0.00  0.00    +0.292 HD
ENDBRANCH   3  15
TORSDOF 6
ENDMDL
MODEL 3
REMARK VINA RESULT:      -6.9      2.180      3.017
REMARK  Name = 5280343
REMARK                            x       y       z     vdW  Elec       q    Type
REMARK                         _______ _______ _______ _____ _____    ______ ____
ROOT
ATOM      1  O   LIG    1        9.311  15.483  41.311  0.00  0.00    -0.451 OA
ATOM      2  C   LIG    1        8.324  15.782  42.238  0.00  0.00    +0.181 A 
ATOM      3  C   LIG    1        8.561  16.163  43.507  0.00  0.00    +0.208 A 
ATOM      4  C   LIG    1        9.965  16.296  43.964  0.00  0.00    +0.238 A 
ATOM      5  C   LIG    1       11.007  15.990  42.971  0.00  0.00    +0.109 A 
ATOM      6  C   LIG    1       12.360  16.089  43.302  0.00  0.00    +0.135 A 
ATOM      7  C   LIG    1       13.327  15.792  42.341  0.00  0.00    +0.091 A 
ATOM      8  C   LIG    1       12.944  15.399  41.058  0.00  0.00    +0.124 A 
ATOM      9  C   LIG    1       11.592  15.301  40.732  0.00  0.00    +0.092 A 
ATOM     14  O   LIG    1       10.243  16.640  45.106  0.00  0.00    -0.283 OA
ATOM     27  C   LIG    1       10.622  15.599  41.690  0.00  0.00    +0.147 A 
ENDROOT
BRANCH   2  17
ATOM     17  C   LIG    1        6.962  15.618  41.703  0.00  0.00    +0.025 A 
ATOM     18  C   LIG    1        6.307  14.392  41.826  0.00  0.00    +0.015 A 
ATOM     19  C   LIG    1        5.017  14.236  41.319  0.00  0.00    +0.050 A 
ATOM     20  C   LIG    1        4.382  15.305  40.688  0.00  0.00    +0.158 A 
ATOM     21  C   LIG    1        5.037  16.531  40.563  0.00  0.00    +0.159 A 
ATOM     26  C   LIG    1        6.327  16.687  41.072  0.00  0.00    +0.060 A 
BRANCH  21  22
ATOM     22  O   LIG    1        4.425  17.582  39.950  0.00  0.00    -0.503 OA
ATOM     23  H   LIG    1        3.571  17.298  39.586  0.00  0.00    +0.292 HD
ENDBRANCH  21  22
BRANCH  20  24
ATOM     24  O   LIG    1        3.123  15.140  40.194  0.00  0.00    -0.503 OA
ATOM     25  H   LIG    1        2.799  15.981  39.834  0.00  0.00    +0.292 HD
ENDBRANCH  20  24
ENDBRANCH   2  17
BRANCH   8  10
ATOM     10  O   LIG    1       13.891  15.109  40.124  0.00  0.00    -0.507 OA
ATOM     11  H   LIG    1       13.850  14.159  39.917  0.00  0.00    +0.292 HD
ENDBRANCH   8  10
BRANCH   6  12
ATOM     12  O   LIG    1       12.789  16.468  44.539  0.00  0.00    -0.506 OA
ATOM     13  H   LIG    1       13.554  15.938  44.811  0.00  0.00    +0.292 HD
ENDBRANCH   6  12
BRANCH   3  15
ATOM     15  O   LIG    1        7.557  16.421  44.415  0.00  0.00    -0.501 OA
ATOM     16  H   LIG    1        7.602  15.784  45.147  0.00  0.00    +0.292 HD
ENDBRANCH   3  15
TORSDOF 6
ENDMDL
MODEL 4
REMARK VINA RESULT:      -6.9     19.450     24.379
REMARK  Name = 5280343
REMARK                            x       y       z     vdW  Elec       q    Type
REMARK                         _______ _______ _______ _____ _____    ______ ____
ROOT
ATOM      1  O   LIG    1       -9.692  19.366  55.075  0.00  0.00    -0.451 OA
ATOM      2  C   LIG    1       -9.870  18.964  53.761  0.00  0.00    +0.181 A 
ATOM      3  C   LIG    1      -10.917  19.316  52.991  0.00  0.00    +0.208 A 
ATOM      4  C   LIG    1      -11.955  20.209  53.559  0.00  0.00    +0.238 A 
ATOM      5  C   LIG    1      -11.753  20.642  54.950  0.00  0.00    +0.109 A 
ATOM      6  C   LIG    1      -12.673  21.486  55.577  0.00  0.00    +0.135 A 
ATOM      7  C   LIG    1      -12.457  21.881  56.897  0.00  0.00    +0.091 A 
ATOM      8  C   LIG    1      -11.330  21.434  57.588  0.00  0.00    +0.124 A 
ATOM      9  C   LIG    1      -10.413  20.591  56.960  0.00  0.00    +0.092 A 
ATOM     14  O   LIG    1      -12.929  20.564  52.907  0.00  0.00    -0.283 OA
ATOM     27  C   LIG    1      -10.626  20.196  55.638  0.00  0.00    +0.147 A 
ENDROOT
BRANCH   2  17
ATOM     17  C   LIG    1       -8.797  18.077  53.279  0.00  0.00    +0.025 A 
ATOM     18  C   LIG    1       -8.726  16.759  53.733  0.00  0.00    +0.015 A 
ATOM     19  C   LIG    1       -7.710  15.919  53.278  0.00  0.00    +0.050 A 
ATOM     20  C   LIG    1       -6.765  16.396  52.370  0.00  0.00    +0.158 A 
ATOM     21  C   LIG    1       -6.835  17.714  51.917  0.00  0.00    +0.159 A 
ATOM     26  C   LIG    1       -7.852  18.554  52.372  0.00  0.00    +0.060 A 
BRANCH  21  22
ATOM     22  O   LIG    1       -5.918  18.190  51.030  0.00  0.00    -0.503 OA
ATOM     23  H   LIG    1       -5.025  17.923  51.305  0.00  0.00    +0.292 HD
ENDBRANCH  21  22
BRANCH  20  24
ATOM     24  O   LIG    1       -5.775  15.566  51.935  0.00  0.00    -0.503 OA
ATOM     25  H   LIG    1       -5.264  16.005  51.236  0.00  0.00    +0.292 HD
ENDBRANCH  20  24
ENDBRANCH   2  17
BRANCH   8  10
ATOM     10  O   LIG    1      -11.123  21.821  58.877  0.00  0.00    -0.507 OA
ATOM     11  H   LIG    1      -11.620  21.228  59.467  0.00  0.00    +0.292 HD
ENDBRANCH   8  10
BRANCH   6  12
ATOM     12  O   LIG    1      -13.790  21.951  54.949  0.00  0.00    -0.506 OA
ATOM     13  H   LIG    1      -14.355  22.431  55.573  0.00  0.00    +0.292 HD
ENDBRANCH   6  12
BRANCH   3  15
ATOM     15  O   LIG    1      -11.082  18.873  51.696  0.00  0.00    -0.501 OA
ATOM     16  H   LIG    1      -11.020  19.621  51.081  0.00  0.00    +0.292 HD
ENDBRANCH   3  15
TORSDOF 6
ENDMDL
MODEL 5
REMARK VINA RESULT:      -6.9     26.378     28.262
REMARK  Name = 5280343
REMARK                            x       y       z     vdW  Elec       q    Type
REMARK                         _______ _______ _______ _____ _____    ______ ____
ROOT
ATOM      1  O   LIG    1        1.792  30.627  64.534  0.00  0.00    -0.451 OA
ATOM      2  C   LIG    1        2.790  31.587  64.478  0.00  0.00    +0.181 A 
ATOM      3  C   LIG    1        2.961  32.451  63.460  0.00  0.00    +0.208 A 
ATOM      4  C   LIG    1        2.019  32.404  62.316  0.00  0.00    +0.238 A 
ATOM      5  C   LIG    1        0.955  31.391  62.388  0.00  0.00    +0.109 A 
ATOM      6  C   LIG    1        0.015  31.268  61.362  0.00  0.00    +0.135 A 
ATOM      7  C   LIG    1       -0.983  30.298  61.455  0.00  0.00    +0.091 A 
ATOM      8  C   LIG    1       -1.043  29.457  62.567  0.00  0.00    +0.124 A 
ATOM      9  C   LIG    1       -0.103  29.582  63.589  0.00  0.00    +0.092 A 
ATOM     14  O   LIG    1        2.123  33.164  61.362  0.00  0.00    -0.283 OA
ATOM     27  C   LIG    1        0.897  30.552  63.499  0.00  0.00    +0.147 A 
ENDROOT
BRANCH   2  17
ATOM     17  C   LIG    1        3.682  31.559  65.651  0.00  0.00    +0.025 A 
ATOM     18  C   LIG    1        3.248  32.084  66.869  0.00  0.00    +0.015 A 
ATOM     19  C   LIG    1        4.092  32.058  67.979  0.00  0.00    +0.050 A 
ATOM     20  C   LIG    1        5.369  31.508  67.872  0.00  0.00    +0.158 A 
ATOM     21  C   LIG    1        5.803  30.985  66.654  0.00  0.00    +0.159 A 
ATOM     26  C   LIG    1        4.959  31.010  65.543  0.00  0.00    +0.060 A 
BRANCH  21  22
ATOM     22  O   LIG    1        7.048  30.444  66.538  0.00  0.00    -0.503 OA
ATOM     23  H   LIG    1        7.093  29.890  65.742  0.00  0.00    +0.292 HD
ENDBRANCH  21  22
BRANCH  20  24
ATOM     24  O   LIG    1        6.185  31.491  68.963  0.00  0.00    -0.503 OA
ATOM     25  H   LIG    1        5.702  31.140  69.728  0.00  0.00    +0.292 HD
ENDBRANCH  20  24
ENDBRANCH   2  17
BRANCH   8  10
ATOM     10  O   LIG    1       -2.019  28.511  62.654  0.00  0.00    -0.507 OA
ATOM     11  H   LIG    1       -2.161  28.291  63.591  0.00  0.00    +0.292 HD
ENDBRANCH   8  10
BRANCH   6  12
ATOM     12  O   LIG    1        0.027  32.063  60.255  0.00  0.00    -0.506 OA
ATOM     13  H   LIG    1       -0.542  31.692  59.563  0.00  0.00    +0.292 HD
ENDBRANCH   6  12
BRANCH   3  15
ATOM     15  O   LIG    1        3.985  33.373  63.419  0.00  0.00    -0.501 OA
ATOM     16  H   LIG    1        3.767  34.079  62.790  0.00  0.00    +0.292 HD
ENDBRANCH   3  15
TORSDOF 6
ENDMDL
MODEL 6
REMARK VINA RESULT:      -6.9     26.000     27.752
REMARK  Name = 5280343
REMARK                            x       y       z     vdW  Elec       q    Type
REMARK                         _______ _______ _______ _____ _____    ______ ____
ROOT
ATOM      1  O   LIG    1        1.597  30.162  64.520  0.00  0.00    -0.451 OA
ATOM      2  C   LIG    1        1.562  31.050  63.456  0.00  0.00    +0.181 A 
ATOM      3  C   LIG    1        2.500  31.983  63.211  0.00  0.00    +0.208 A 
ATOM      4  C   LIG    1        3.671  32.076  64.116  0.00  0.00    +0.238 A 
ATOM      5  C   LIG    1        3.708  31.122  65.235  0.00  0.00    +0.109 A 
ATOM      6  C   LIG    1        4.770  31.126  66.142  0.00  0.00    +0.135 A 
ATOM      7  C   LIG    1        4.779  30.211  67.195  0.00  0.00    +0.091 A 
ATOM      8  C   LIG    1        3.734  29.297  67.341  0.00  0.00    +0.124 A 
ATOM      9  C   LIG    1        2.675  29.297  66.433  0.00  0.00    +0.092 A 
ATOM     14  O   LIG    1        4.556  32.903  63.943  0.00  0.00    -0.283 OA
ATOM     27  C   LIG    1        2.664  30.210  65.378  0.00  0.00    +0.147 A 
ENDROOT
BRANCH   2  17
ATOM     17  C   LIG    1        0.364  30.891  62.613  0.00  0.00    +0.025 A 
ATOM     18  C   LIG    1        0.252  29.792  61.761  0.00  0.00    +0.015 A 
ATOM     19  C   LIG    1       -0.882  29.642  60.962  0.00  0.00    +0.050 A 
ATOM     20  C   LIG    1       -1.903  30.590  61.015  0.00  0.00    +0.158 A 
ATOM     21  C   LIG    1       -1.791  31.690  61.866  0.00  0.00    +0.159 A 
ATOM     26  C   LIG    1       -0.657  31.840  62.666  0.00  0.00    +0.060 A 
BRANCH  21  22
ATOM     22  O   LIG    1       -2.783  32.621  61.927  0.00  0.00    -0.503 OA
ATOM     23  H   LIG    1       -3.482  32.397  61.291  0.00  0.00    +0.292 HD
ENDBRANCH  21  22
BRANCH  20  24
ATOM     24  O   LIG    1       -3.004  30.433  60.228  0.00  0.00    -0.503 OA
ATOM     25  H   LIG    1       -3.749  30.929  60.604  0.00  0.00    +0.292 HD
ENDBRANCH  20  24
ENDBRANCH   2  17
BRANCH   8  10
ATOM     10  O   LIG    1        3.747  28.406  68.370  0.00  0.00    -0.507 OA
ATOM     11  H   LIG    1        4.274  28.776  69.100  0.00  0.00    +0.292 HD
ENDBRANCH   8  10
BRANCH   6  12
ATOM     12  O   LIG    1        5.815  31.996  66.047  0.00  0.00    -0.506 OA
ATOM     13  H   LIG    1        6.658  31.518  66.065  0.00  0.00    +0.292 HD
ENDBRANCH   6  12
BRANCH   3  15
ATOM     15  O   LIG    1        2.419  32.874  62.162  0.00  0.00    -0.501 OA
ATOM     16  H   LIG    1        2.780  32.469  61.357  0.00  0.00    +0.292 HD
ENDBRANCH   3  15
TORSDOF 6
ENDMDL
MODEL 7
REMARK VINA RESULT:      -6.8     26.425     28.891
REMARK  Name = 5280343
REMARK                            x       y       z     vdW  Elec       q    Type
REMARK                         _______ _______ _______ _____ _____    ______ ____
ROOT
ATOM      1  O   LIG    1        2.874  32.485  63.854  0.00  0.00    -0.451 OA
ATOM      2  C   LIG    1        2.658  31.953  65.116  0.00  0.00    +0.181 A 
ATOM      3  C   LIG    1        1.518  31.353  65.506  0.00  0.00    +0.208 A 
ATOM      4  C   LIG    1        0.408  31.224  64.531  0.00  0.00    +0.238 A 
ATOM      5  C   LIG    1        0.649  31.778  63.190  0.00  0.00    +0.109 A 
ATOM      6  C   LIG    1       -0.332  31.703  62.199  0.00  0.00    +0.135 A 
ATOM      7  C   LIG    1       -0.078  32.238  60.936  0.00  0.00    +0.091 A 
ATOM      8  C   LIG    1        1.150  32.844  60.665  0.00  0.00    +0.124 A 
ATOM      9  C   LIG    1        2.128  32.917  61.657  0.00  0.00    +0.092 A 
ATOM     14  O   LIG    1       -0.652  30.687  64.827  0.00  0.00    -0.283 OA
ATOM     27  C   LIG    1        1.876  32.382  62.921  0.00  0.00    +0.147 A 
ENDROOT
BRANCH   2  17
ATOM     17  C   LIG    1        3.808  32.130  66.020  0.00  0.00    +0.025 A 
ATOM     18  C   LIG    1        3.812  33.175  66.946  0.00  0.00    +0.015 A 
ATOM     19  C   LIG    1        4.901  33.343  67.802  0.00  0.00    +0.050 A 
ATOM     20  C   LIG    1        5.985  32.468  67.732  0.00  0.00    +0.158 A 
ATOM     21  C   LIG    1        5.981  31.424  66.806  0.00  0.00    +0.159 A 
ATOM     26  C   LIG    1        4.891  31.255  65.951  0.00  0.00    +0.060 A 
BRANCH  21  22
ATOM     22  O   LIG    1        7.033  30.563  66.730  0.00  0.00    -0.503 OA
ATOM     23  H   LIG    1        6.994  30.070  65.895  0.00  0.00    +0.292 HD
ENDBRANCH  21  22
BRANCH  20  24
ATOM     24  O   LIG    1        7.043  32.644  68.572  0.00  0.00    -0.503 OA
ATOM     25  H   LIG    1        7.805  32.978  68.072  0.00  0.00    +0.292 HD
ENDBRANCH  20  24
ENDBRANCH   2  17
BRANCH   8  10
ATOM     10  O   LIG    1        1.394  33.366  59.431  0.00  0.00    -0.507 OA
ATOM     11  H   LIG    1        0.827  34.145  59.301  0.00  0.00    +0.292 HD
ENDBRANCH   8  10
BRANCH   6  12
ATOM     12  O   LIG    1       -1.547  31.124  62.410  0.00  0.00    -0.506 OA
ATOM     13  H   LIG    1       -2.248  31.635  61.978  0.00  0.00    +0.292 HD
ENDBRANCH   6  12
BRANCH   3  15
ATOM     15  O   LIG    1        1.322  30.864  66.779  0.00  0.00    -0.501 OA
ATOM     16  H   LIG    1        0.943  31.557  67.345  0.00  0.00    +0.292 HD
ENDBRANCH   3  15
TORSDOF 6
ENDMDL
MODEL 8
REMARK VINA RESULT:      -6.8     29.806     31.697
REMARK  Name = 5280343
REMARK                            x       y       z     vdW  Elec       q    Type
REMARK                         _______ _______ _______ _____ _____    ______ ____
ROOT
ATOM      1  O   LIG    1      -10.382  33.524  59.893  0.00  0.00    -0.451 OA
ATOM      2  C   LIG    1      -10.633  32.495  58.999  0.00  0.00    +0.181 A 
ATOM      3  C   LIG    1       -9.948  31.337  58.956  0.00  0.00    +0.208 A 
ATOM      4  C   LIG    1       -8.855  31.116  59.934  0.00  0.00    +0.238 A 
ATOM      5  C   LIG    1       -8.603  32.206  60.888  0.00  0.00    +0.109 A 
ATOM      6  C   LIG    1       -7.598  32.094  61.852  0.00  0.00    +0.135 A 
ATOM      7  C   LIG    1       -7.379  33.143  62.744  0.00  0.00    +0.091 A 
ATOM      8  C   LIG    1       -8.160  34.299  62.675  0.00  0.00    +0.124 A 
ATOM      9  C   LIG    1       -9.162  34.407  61.711  0.00  0.00    +0.092 A 
ATOM     14  O   LIG    1       -8.198  30.083  59.944  0.00  0.00    -0.283 OA
ATOM     27  C   LIG    1       -9.384  33.358  60.818  0.00  0.00    +0.147 A 
ENDROOT
BRANCH   2  17
ATOM     17  C   LIG    1      -11.728  32.801  58.062  0.00  0.00    +0.025 A 
ATOM     18  C   LIG    1      -13.033  32.941  58.537  0.00  0.00    +0.015 A 
ATOM     19  C   LIG    1      -14.070  33.231  57.651  0.00  0.00    +0.050 A 
ATOM     20  C   LIG    1      -13.804  33.380  56.290  0.00  0.00    +0.158 A 
ATOM     21  C   LIG    1      -12.500  33.239  55.815  0.00  0.00    +0.159 A 
ATOM     26  C   LIG    1      -11.462  32.950  56.701  0.00  0.00    +0.060 A 
BRANCH  21  22
ATOM     22  O   LIG    1      -12.228  33.384  54.488  0.00  0.00    -0.503 OA
ATOM     23  H   LIG    1      -13.030  33.212  53.968  0.00  0.00    +0.292 HD
ENDBRANCH  21  22
BRANCH  20  24
ATOM     24  O   LIG    1      -14.826  33.661  55.434  0.00  0.00    -0.503 OA
ATOM     25  H   LIG    1      -15.197  34.533  55.641  0.00  0.00    +0.292 HD
ENDBRANCH  20  24
ENDBRANCH   2  17
BRANCH   8  10
ATOM     10  O   LIG    1       -7.943  35.321  63.547  0.00  0.00    -0.507 OA
ATOM     11  H   LIG    1       -7.942  36.160  63.055  0.00  0.00    +0.292 HD
ENDBRANCH   8  10
BRANCH   6  12
ATOM     12  O   LIG    1       -6.807  30.990  61.964  0.00  0.00    -0.506 OA
ATOM     13  H   LIG    1       -5.997  31.098  61.443  0.00  0.00    +0.292 HD
ENDBRANCH   6  12
BRANCH   3  15
ATOM     15  O   LIG    1      -10.201  30.347  58.032  0.00  0.00    -0.501 OA
ATOM     16  H   LIG    1      -11.071  30.489  57.626  0.00  0.00    +0.292 HD
ENDBRANCH   3  15
TORSDOF 6
ENDMDL
MODEL 9
REMARK VINA RESULT:      -6.6     18.762     21.795
REMARK  Name = 5280343
REMARK                            x       y       z     vdW  Elec       q    Type
REMARK                         _______ _______ _______ _____ _____    ______ ____
ROOT
ATOM      1  O   LIG    1      -10.195  16.418  50.402  0.00  0.00    -0.451 OA
ATOM      2  C   LIG    1       -8.964  15.781  50.394  0.00  0.00    +0.181 A 
ATOM      3  C   LIG    1       -7.946  16.078  51.222  0.00  0.00    +0.208 A 
ATOM      4  C   LIG    1       -8.135  17.145  52.234  0.00  0.00    +0.238 A 
ATOM      5  C   LIG    1       -9.449  17.808  52.246  0.00  0.00    +0.109 A 
ATOM      6  C   LIG    1       -9.728  18.824  53.164  0.00  0.00    +0.135 A 
ATOM      7  C   LIG    1      -10.981  19.436  53.152  0.00  0.00    +0.091 A 
ATOM      8  C   LIG    1      -11.950  19.036  52.230  0.00  0.00    +0.124 A 
ATOM      9  C   LIG    1      -11.667  18.022  51.315  0.00  0.00    +0.092 A 
ATOM     14  O   LIG    1       -7.247  17.459  53.016  0.00  0.00    -0.283 OA
ATOM     27  C   LIG    1      -10.414  17.407  51.325  0.00  0.00    +0.147 A 
ENDROOT
BRANCH   2  17
ATOM     17  C   LIG    1       -8.862  14.741  49.355  0.00  0.00    +0.025 A 
ATOM     18  C   LIG    1       -9.649  13.592  49.439  0.00  0.00    +0.015 A 
ATOM     19  C   LIG    1       -9.552  12.607  48.457  0.00  0.00    +0.050 A 
ATOM     20  C   LIG    1       -8.668  12.770  47.390  0.00  0.00    +0.158 A 
ATOM     21  C   LIG    1       -7.880  13.918  47.306  0.00  0.00    +0.159 A 
ATOM     26  C   LIG    1       -7.978  14.904  48.289  0.00  0.00    +0.060 A 
BRANCH  21  22
ATOM     22  O   LIG    1       -7.015  14.089  46.269  0.00  0.00    -0.503 OA
ATOM     23  H   LIG    1       -7.061  13.323  45.674  0.00  0.00    +0.292 HD
ENDBRANCH  21  22
BRANCH  20  24
ATOM     24  O   LIG    1       -8.580  11.800  46.438  0.00  0.00    -0.503 OA
ATOM     25  H   LIG    1       -7.654  11.534  46.325  0.00  0.00    +0.292 HD
ENDBRANCH  20  24
ENDBRANCH   2  17
BRANCH   8  10
ATOM     10  O   LIG    1      -13.171  19.637  52.222  0.00  0.00    -0.507 OA
ATOM     11  H   LIG    1      -13.745  19.193  52.871  0.00  0.00    +0.292 HD
ENDBRANCH   8  10
BRANCH   6  12
ATOM     12  O   LIG    1       -8.820  19.253  54.084  0.00  0.00    -0.506 OA
ATOM     13  H   LIG    1       -8.226  19.911  53.695  0.00  0.00    +0.292 HD
ENDBRANCH   6  12
BRANCH   3  15
ATOM     15  O   LIG    1       -6.722  15.448  51.166  0.00  0.00    -0.501 OA
ATOM     16  H   LIG    1       -6.013  16.089  51.337  0.00  0.00    +0.292 HD
ENDBRANCH   3  15
TORSDOF 6
ENDMDL
