REMARK  Name = PCA
REMARK                            x       y       z     vdW  Elec       q    Type
REMARK                         _______ _______ _______ _____ _____    ______ ____
ROOT
ATOM      1  N   GLN A  1        8.461  17.800  64.244  0.00  0.00    -0.302 N 
ATOM      2  H   GLN A  1        9.254  18.207  63.748  0.00  0.00    +0.150 HD
ATOM      3  CD  GLN A  1        8.533  17.407  65.529  0.00  0.00    +0.214 C 
ATOM      4  OE1 GLN A  1        9.553  17.517  66.245  0.00  0.00    -0.276 OA
ATOM      5  CG  GLN A  1        7.175  16.884  66.011  0.00  0.00    +0.098 C 
ATOM      6  CB  GLN A  1        6.472  16.535  64.719  0.00  0.00    +0.043 C 
ATOM      7  CA  GLN A  1        7.105  17.536  63.761  0.00  0.00    +0.182 C 
ENDROOT
BRANCH   7   8
ATOM      8  C   GLN A  1        6.257  18.800  63.746  0.00  0.00    +0.325 C 
ATOM     11  O   GLN A  1        5.024  18.730  63.743  0.00  0.00    -0.249 OA
BRANCH   8   9
ATOM      9  OXT GLN A  1        6.916  19.955  63.752  0.00  0.00    -0.479 OA
ATOM     10  HXT GLN A  1        7.864  19.900  63.765  0.00  0.00    +0.295 HD
ENDBRANCH   8   9
ENDBRANCH   7   8
TORSDOF 2
