REMARK  Name = PCA
REMARK                            x       y       z     vdW  Elec       q    Type
REMARK                         _______ _______ _______ _____ _____    ______ ____
ROOT
ATOM      1  N   GLN A  1        5.952  16.465  65.345  0.00  0.00    -0.302 N 
ATOM      2  H   GLN A  1        5.033  16.298  65.755  0.00  0.00    +0.150 HD
ATOM      3  CD  GLN A  1        6.663  15.496  64.739  0.00  0.00    +0.214 C 
ATOM      4  OE1 GLN A  1        6.271  14.317  64.596  0.00  0.00    -0.276 OA
ATOM      5  CG  GLN A  1        7.975  16.059  64.181  0.00  0.00    +0.098 C 
ATOM      6  CB  GLN A  1        8.171  17.320  64.991  0.00  0.00    +0.043 C 
ATOM      7  CA  GLN A  1        6.727  17.704  65.288  0.00  0.00    +0.182 C 
ENDROOT
BRANCH   7   8
ATOM      8  C   GLN A  1        6.232  18.628  64.184  0.00  0.00    +0.325 C 
ATOM     11  O   GLN A  1        5.082  18.525  63.746  0.00  0.00    -0.249 OA
BRANCH   8   9
ATOM      9  OXT GLN A  1        7.096  19.539  63.744  0.00  0.00    -0.479 OA
ATOM     10  HXT GLN A  1        7.957  19.533  64.143  0.00  0.00    +0.295 HD
ENDBRANCH   8   9
ENDBRANCH   7   8
TORSDOF 2
