REMARK  Name = FMN
REMARK                            x       y       z     vdW  Elec       q    Type
REMARK                         _______ _______ _______ _____ _____    ______ ____
ROOT
ATOM      1  N   LIG    1       33.864   7.225  13.583  0.00  0.00    -0.173 NA
ATOM      2  C   LIG    1       33.786   8.495  13.263  0.00  0.00    +0.170 A 
ATOM      3  N   LIG    1       34.557   9.434  13.883  0.00  0.00    -0.320 N 
ATOM     22  C   LIG    1       34.382  10.809  13.674  0.00  0.00    +0.069 A 
ATOM     23  C   LIG    1       35.153  11.792  14.273  0.00  0.00    +0.031 A 
ATOM     24  C   LIG    1       34.893  13.117  14.090  0.00  0.00    -0.045 A 
ATOM     25  C   LIG    1       35.812  14.115  14.778  0.00  0.00    +0.044 C 
ATOM     26  C   LIG    1       33.814  13.518  13.226  0.00  0.00    -0.045 A 
ATOM     27  C   LIG    1       33.489  15.018  13.122  0.00  0.00    +0.044 C 
ATOM     28  C   LIG    1       33.122  12.607  12.487  0.00  0.00    +0.033 A 
ATOM     29  C   LIG    1       33.345  11.186  12.722  0.00  0.00    +0.089 A 
ATOM     30  N   LIG    1       32.559  10.279  12.130  0.00  0.00    -0.237 NA
ATOM     31  C   LIG    1       32.736   8.990  12.357  0.00  0.00    +0.171 A 
ATOM     32  C   LIG    1       31.788   8.007  11.826  0.00  0.00    +0.282 A 
ATOM     33  O   LIG    1       30.899   8.358  11.037  0.00  0.00    -0.265 OA
ATOM     34  N   LIG    1       31.974   6.721  12.176  0.00  0.00    -0.272 N 
ATOM     35  H   LIG    1       31.358   6.024  11.808  0.00  0.00    +0.174 HD
ATOM     36  C   LIG    1       33.031   6.319  13.062  0.00  0.00    +0.351 A 
ATOM     37  O   LIG    1       33.185   5.133  13.215  0.00  0.00    -0.245 OA
ENDROOT
BRANCH   3   4
ATOM      4  C   LIG    1       35.554   8.925  14.861  0.00  0.00    +0.158 C 
BRANCH   4   5
ATOM      5  C   LIG    1       34.789   8.587  16.157  0.00  0.00    +0.165 C 
BRANCH   5  20
ATOM     20  O   LIG    1       34.417   9.829  16.794  0.00  0.00    -0.387 OA
ATOM     21  H   LIG    1       33.943   9.644  17.597  0.00  0.00    +0.210 HD
ENDBRANCH   5  20
BRANCH   5   6
ATOM      6  C   LIG    1       35.681   7.821  17.150  0.00  0.00    +0.175 C 
BRANCH   6  18
ATOM     18  O   LIG    1       36.849   8.662  17.488  0.00  0.00    -0.387 OA
ATOM     19  H   LIG    1       37.407   8.198  18.101  0.00  0.00    +0.210 HD
ENDBRANCH   6  18
BRANCH   6   7
ATOM      7  C   LIG    1       36.212   6.518  16.591  0.00  0.00    +0.172 C 
BRANCH   7  16
ATOM     16  O   LIG    1       35.149   5.804  15.909  0.00  0.00    -0.387 OA
ATOM     17  H   LIG    1       35.488   4.988  15.561  0.00  0.00    +0.210 HD
ENDBRANCH   7  16
BRANCH   7   8
ATOM      8  C   LIG    1       36.712   5.634  17.721  0.00  0.00    +0.206 C 
BRANCH   8   9
ATOM      9  O   LIG    1       35.604   5.252  18.579  0.00  0.00    -0.284 OA
BRANCH   9  10
ATOM     10  P   LIG    1       35.837   4.628  20.038  0.00  0.00    +0.472 P 
ATOM     15  O   LIG    1       36.585   5.692  20.802  0.00  0.00    -0.228 OA
BRANCH  10  11
ATOM     11  O   LIG    1       34.436   4.306  20.554  0.00  0.00    -0.303 OA
ATOM     12  H   LIG    1       34.244   4.849  21.309  0.00  0.00    +0.222 HD
ENDBRANCH  10  11
BRANCH  10  13
ATOM     13  O   LIG    1       36.682   3.364  19.847  0.00  0.00    -0.303 OA
ATOM     14  H   LIG    1       37.533   3.487  20.251  0.00  0.00    +0.222 HD
ENDBRANCH  10  13
ENDBRANCH   9  10
ENDBRANCH   8   9
ENDBRANCH   7   8
ENDBRANCH   6   7
ENDBRANCH   5   6
ENDBRANCH   4   5
ENDBRANCH   3   4
TORSDOF 12
