MODEL 1
REMARK VINA RESULT:      -8.2      0.000      0.000
REMARK  Name = 5280637
REMARK                            x       y       z     vdW  Elec       q    Type
REMARK                         _______ _______ _______ _____ _____    ______ ____
ROOT
ATOM     13  C   LIG    1       -5.285  33.088  63.124  0.00  0.00    +0.131 A 
ATOM     14  C   LIG    1       -5.954  34.072  63.852  0.00  0.00    +0.092 A 
ATOM     15  C   LIG    1       -7.265  34.418  63.523  0.00  0.00    +0.135 A 
ATOM     16  C   LIG    1       -7.901  33.773  62.460  0.00  0.00    +0.105 A 
ATOM     17  C   LIG    1       -9.282  34.118  62.088  0.00  0.00    +0.197 A 
ATOM     18  C   LIG    1       -9.857  33.371  60.950  0.00  0.00    +0.098 A 
ATOM     19  C   LIG    1       -9.114  32.440  60.332  0.00  0.00    +0.139 A 
ATOM     30  O   LIG    1       -7.810  32.123  60.679  0.00  0.00    -0.454 OA
ATOM     31  O   LIG    1       -9.925  34.973  62.681  0.00  0.00    -0.287 OA
ATOM     32  C   LIG    1       -7.234  32.789  61.732  0.00  0.00    +0.146 A 
ATOM     35  C   LIG    1       -5.924  32.445  62.063  0.00  0.00    +0.093 A 
ENDROOT
BRANCH  19  20
ATOM     20  C   LIG    1       -9.632  31.669  59.183  0.00  0.00    +0.021 A 
ATOM     21  C   LIG    1       -8.781  31.313  58.135  0.00  0.00    +0.015 A 
ATOM     22  C   LIG    1       -9.271  30.586  57.051  0.00  0.00    +0.050 A 
ATOM     23  C   LIG    1      -10.614  30.212  57.011  0.00  0.00    +0.158 A 
ATOM     24  C   LIG    1      -11.467  30.567  58.056  0.00  0.00    +0.159 A 
ATOM     29  C   LIG    1      -10.977  31.294  59.141  0.00  0.00    +0.060 A 
BRANCH  24  25
ATOM     25  O   LIG    1      -12.781  30.206  58.028  0.00  0.00    -0.503 OA
ATOM     26  H   LIG    1      -13.209  30.547  58.832  0.00  0.00    +0.292 HD
ENDBRANCH  24  25
BRANCH  23  27
ATOM     27  O   LIG    1      -11.081  29.504  55.946  0.00  0.00    -0.503 OA
ATOM     28  H   LIG    1      -11.900  29.918  55.624  0.00  0.00    +0.292 HD
ENDBRANCH  23  27
ENDBRANCH  19  20
BRANCH  15  33
ATOM     33  O   LIG    1       -7.874  35.386  64.263  0.00  0.00    -0.506 OA
ATOM     34  H   LIG    1       -7.538  35.381  65.172  0.00  0.00    +0.292 HD
ENDBRANCH  15  33
BRANCH  13  12
ATOM     12  O   LIG    1       -4.003  32.753  63.450  0.00  0.00    -0.461 OA
BRANCH  12   2
ATOM      1  O   LIG    1       -2.580  31.251  62.372  0.00  0.00    -0.331 OA
ATOM      2  C   LIG    1       -3.093  32.581  62.365  0.00  0.00    +0.339 C 
ATOM      3  C   LIG    1       -1.960  33.593  62.536  0.00  0.00    +0.214 C 
ATOM      4  C   LIG    1       -0.860  33.378  61.497  0.00  0.00    +0.180 C 
ATOM      5  C   LIG    1       -0.449  31.907  61.422  0.00  0.00    +0.177 C 
ATOM     36  C   LIG    1       -1.678  31.006  61.291  0.00  0.00    +0.179 C 
BRANCH   5   6
ATOM      6  O   LIG    1        0.402  31.712  60.295  0.00  0.00    -0.386 OA
ATOM      7  H   LIG    1        1.167  32.304  60.390  0.00  0.00    +0.210 HD
ENDBRANCH   5   6
BRANCH   4   8
ATOM      8  O   LIG    1        0.292  34.142  61.858  0.00  0.00    -0.386 OA
ATOM      9  H   LIG    1        0.994  33.929  61.219  0.00  0.00    +0.210 HD
ENDBRANCH   4   8
BRANCH   3  10
ATOM     10  O   LIG    1       -2.504  34.904  62.385  0.00  0.00    -0.383 OA
ATOM     11  H   LIG    1       -2.055  35.332  61.636  0.00  0.00    +0.210 HD
ENDBRANCH   3  10
BRANCH  36  37
ATOM     37  C   LIG    1       -1.301  29.528  61.333  0.00  0.00    +0.190 C 
BRANCH  37  38
ATOM     38  O   LIG    1       -2.247  28.800  60.571  0.00  0.00    -0.392 OA
ATOM     39  H   LIG    1       -1.755  28.187  59.998  0.00  0.00    +0.210 HD
ENDBRANCH  37  38
ENDBRANCH  36  37
ENDBRANCH  12   2
ENDBRANCH  13  12
TORSDOF 11
ENDMDL
MODEL 2
REMARK VINA RESULT:      -7.8      1.311      2.616
REMARK  Name = 5280637
REMARK                            x       y       z     vdW  Elec       q    Type
REMARK                         _______ _______ _______ _____ _____    ______ ____
ROOT
ATOM     13  C   LIG    1       -5.105  31.728  62.538  0.00  0.00    +0.131 A 
ATOM     14  C   LIG    1       -5.450  32.577  63.590  0.00  0.00    +0.092 A 
ATOM     15  C   LIG    1       -6.671  33.252  63.574  0.00  0.00    +0.135 A 
ATOM     16  C   LIG    1       -7.544  33.072  62.499  0.00  0.00    +0.105 A 
ATOM     17  C   LIG    1       -8.838  33.771  62.453  0.00  0.00    +0.197 A 
ATOM     18  C   LIG    1       -9.682  33.504  61.271  0.00  0.00    +0.098 A 
ATOM     19  C   LIG    1       -9.242  32.659  60.325  0.00  0.00    +0.139 A 
ATOM     30  O   LIG    1       -8.019  32.008  60.367  0.00  0.00    -0.454 OA
ATOM     31  O   LIG    1       -9.201  34.531  63.339  0.00  0.00    -0.287 OA
ATOM     32  C   LIG    1       -7.201  32.222  61.448  0.00  0.00    +0.146 A 
ATOM     35  C   LIG    1       -5.980  31.549  61.465  0.00  0.00    +0.093 A 
ENDROOT
BRANCH  19  20
ATOM     20  C   LIG    1      -10.039  32.362  59.117  0.00  0.00    +0.021 A 
ATOM     21  C   LIG    1      -11.171  33.123  58.820  0.00  0.00    +0.015 A 
ATOM     22  C   LIG    1      -11.925  32.841  57.680  0.00  0.00    +0.050 A 
ATOM     23  C   LIG    1      -11.547  31.798  56.834  0.00  0.00    +0.158 A 
ATOM     24  C   LIG    1      -10.417  31.035  57.130  0.00  0.00    +0.159 A 
ATOM     29  C   LIG    1       -9.663  31.317  58.270  0.00  0.00    +0.060 A 
BRANCH  24  25
ATOM     25  O   LIG    1      -10.038  30.015  56.310  0.00  0.00    -0.503 OA
ATOM     26  H   LIG    1       -9.693  30.397  55.485  0.00  0.00    +0.292 HD
ENDBRANCH  24  25
BRANCH  23  27
ATOM     27  O   LIG    1      -12.291  31.532  55.725  0.00  0.00    -0.503 OA
ATOM     28  H   LIG    1      -12.317  32.325  55.163  0.00  0.00    +0.292 HD
ENDBRANCH  23  27
ENDBRANCH  19  20
BRANCH  15  33
ATOM     33  O   LIG    1       -6.961  34.070  64.624  0.00  0.00    -0.506 OA
ATOM     34  H   LIG    1       -7.289  34.926  64.309  0.00  0.00    +0.292 HD
ENDBRANCH  15  33
BRANCH  13  12
ATOM     12  O   LIG    1       -3.910  31.070  62.558  0.00  0.00    -0.461 OA
BRANCH  12   2
ATOM      1  O   LIG    1       -3.021  33.016  61.628  0.00  0.00    -0.331 OA
ATOM      2  C   LIG    1       -2.738  31.874  62.431  0.00  0.00    +0.339 C 
ATOM      3  C   LIG    1       -1.649  31.018  61.782  0.00  0.00    +0.214 C 
ATOM      4  C   LIG    1       -0.402  31.846  61.471  0.00  0.00    +0.180 C 
ATOM      5  C   LIG    1       -0.765  33.144  60.749  0.00  0.00    +0.177 C 
ATOM     36  C   LIG    1       -1.890  33.878  61.482  0.00  0.00    +0.179 C 
BRANCH   5   6
ATOM      6  O   LIG    1        0.384  33.985  60.684  0.00  0.00    -0.386 OA
ATOM      7  H   LIG    1        0.497  34.267  59.760  0.00  0.00    +0.210 HD
ENDBRANCH   5   6
BRANCH   4   8
ATOM      8  O   LIG    1        0.468  31.095  60.623  0.00  0.00    -0.386 OA
ATOM      9  H   LIG    1       -0.079  30.446  60.147  0.00  0.00    +0.210 HD
ENDBRANCH   4   8
BRANCH   3  10
ATOM     10  O   LIG    1       -1.307  29.967  62.686  0.00  0.00    -0.383 OA
ATOM     11  H   LIG    1       -1.181  29.154  62.168  0.00  0.00    +0.210 HD
ENDBRANCH   3  10
BRANCH  36  37
ATOM     37  C   LIG    1       -2.349  35.115  60.717  0.00  0.00    +0.190 C 
BRANCH  37  38
ATOM     38  O   LIG    1       -1.526  36.205  61.088  0.00  0.00    -0.392 OA
ATOM     39  H   LIG    1       -0.730  36.178  60.528  0.00  0.00    +0.210 HD
ENDBRANCH  37  38
ENDBRANCH  36  37
ENDBRANCH  12   2
ENDBRANCH  13  12
TORSDOF 11
ENDMDL
MODEL 3
REMARK VINA RESULT:      -7.7      2.238      3.014
REMARK  Name = 5280637
REMARK                            x       y       z     vdW  Elec       q    Type
REMARK                         _______ _______ _______ _____ _____    ______ ____
ROOT
ATOM     13  C   LIG    1       -4.496  31.713  62.641  0.00  0.00    +0.131 A 
ATOM     14  C   LIG    1       -4.616  30.540  63.386  0.00  0.00    +0.092 A 
ATOM     15  C   LIG    1       -5.664  29.654  63.136  0.00  0.00    +0.135 A 
ATOM     16  C   LIG    1       -6.592  29.950  62.135  0.00  0.00    +0.105 A 
ATOM     17  C   LIG    1       -7.709  29.037  61.849  0.00  0.00    +0.197 A 
ATOM     18  C   LIG    1       -8.629  29.448  60.769  0.00  0.00    +0.098 A 
ATOM     19  C   LIG    1       -8.404  30.601  60.118  0.00  0.00    +0.139 A 
ATOM     30  O   LIG    1       -7.355  31.463  60.395  0.00  0.00    -0.454 OA
ATOM     31  O   LIG    1       -7.875  27.994  62.467  0.00  0.00    -0.287 OA
ATOM     32  C   LIG    1       -6.473  31.122  61.389  0.00  0.00    +0.146 A 
ATOM     35  C   LIG    1       -5.425  32.006  61.641  0.00  0.00    +0.093 A 
ENDROOT
BRANCH  19  20
ATOM     20  C   LIG    1       -9.295  31.067  59.035  0.00  0.00    +0.021 A 
ATOM     21  C   LIG    1       -9.769  32.380  59.034  0.00  0.00    +0.015 A 
ATOM     22  C   LIG    1      -10.611  32.820  58.013  0.00  0.00    +0.050 A 
ATOM     23  C   LIG    1      -10.980  31.948  56.989  0.00  0.00    +0.158 A 
ATOM     24  C   LIG    1      -10.509  30.635  56.988  0.00  0.00    +0.159 A 
ATOM     29  C   LIG    1       -9.667  30.195  58.009  0.00  0.00    +0.060 A 
BRANCH  24  25
ATOM     25  O   LIG    1      -10.862  29.775  55.992  0.00  0.00    -0.503 OA
ATOM     26  H   LIG    1      -11.832  29.762  55.928  0.00  0.00    +0.292 HD
ENDBRANCH  24  25
BRANCH  23  27
ATOM     27  O   LIG    1      -11.803  32.389  55.997  0.00  0.00    -0.503 OA
ATOM     28  H   LIG    1      -11.449  32.101  55.139  0.00  0.00    +0.292 HD
ENDBRANCH  23  27
ENDBRANCH  19  20
BRANCH  15  33
ATOM     33  O   LIG    1       -5.737  28.523  63.892  0.00  0.00    -0.506 OA
ATOM     34  H   LIG    1       -6.230  27.833  63.424  0.00  0.00    +0.292 HD
ENDBRANCH  15  33
BRANCH  13  12
ATOM     12  O   LIG    1       -3.469  32.576  62.889  0.00  0.00    -0.461 OA
BRANCH  12   2
ATOM      1  O   LIG    1       -1.360  31.927  62.134  0.00  0.00    -0.331 OA
ATOM      2  C   LIG    1       -2.501  32.732  61.853  0.00  0.00    +0.339 C 
ATOM      3  C   LIG    1       -2.113  34.210  61.791  0.00  0.00    +0.214 C 
ATOM      4  C   LIG    1       -0.967  34.443  60.805  0.00  0.00    +0.180 C 
ATOM      5  C   LIG    1        0.173  33.451  61.037  0.00  0.00    +0.177 C 
ATOM     36  C   LIG    1       -0.360  32.019  61.117  0.00  0.00    +0.179 C 
BRANCH   5   6
ATOM      6  O   LIG    1        1.108  33.548  59.966  0.00  0.00    -0.386 OA
ATOM      7  H   LIG    1        1.830  32.920  60.140  0.00  0.00    +0.210 HD
ENDBRANCH   5   6
BRANCH   4   8
ATOM      8  O   LIG    1       -0.449  35.762  60.982  0.00  0.00    -0.386 OA
ATOM      9  H   LIG    1        0.418  35.795  60.541  0.00  0.00    +0.210 HD
ENDBRANCH   4   8
BRANCH   3  10
ATOM     10  O   LIG    1       -3.255  34.956  61.374  0.00  0.00    -0.383 OA
ATOM     11  H   LIG    1       -3.236  35.816  61.828  0.00  0.00    +0.210 HD
ENDBRANCH   3  10
BRANCH  36  37
ATOM     37  C   LIG    1        0.743  31.025  61.465  0.00  0.00    +0.190 C 
BRANCH  37  38
ATOM     38  O   LIG    1        0.355  29.743  61.006  0.00  0.00    -0.392 OA
ATOM     39  H   LIG    1        0.908  29.085  61.463  0.00  0.00    +0.210 HD
ENDBRANCH  37  38
ENDBRANCH  36  37
ENDBRANCH  12   2
ENDBRANCH  13  12
TORSDOF 11
ENDMDL
MODEL 4
REMARK VINA RESULT:      -7.6      6.808     13.060
REMARK  Name = 5280637
REMARK                            x       y       z     vdW  Elec       q    Type
REMARK                         _______ _______ _______ _____ _____    ______ ____
ROOT
ATOM     13  C   LIG    1        2.654  31.846  63.359  0.00  0.00    +0.131 A 
ATOM     14  C   LIG    1        3.043  33.177  63.515  0.00  0.00    +0.092 A 
ATOM     15  C   LIG    1        3.812  33.559  64.614  0.00  0.00    +0.135 A 
ATOM     16  C   LIG    1        4.190  32.600  65.557  0.00  0.00    +0.105 A 
ATOM     17  C   LIG    1        5.000  32.972  66.727  0.00  0.00    +0.197 A 
ATOM     18  C   LIG    1        5.343  31.878  67.658  0.00  0.00    +0.098 A 
ATOM     19  C   LIG    1        4.914  30.633  67.397  0.00  0.00    +0.139 A 
ATOM     30  O   LIG    1        4.144  30.287  66.297  0.00  0.00    -0.454 OA
ATOM     31  O   LIG    1        5.372  34.120  66.926  0.00  0.00    -0.287 OA
ATOM     32  C   LIG    1        3.802  31.269  65.403  0.00  0.00    +0.146 A 
ATOM     35  C   LIG    1        3.033  30.890  64.304  0.00  0.00    +0.093 A 
ENDROOT
BRANCH  19  20
ATOM     20  C   LIG    1        5.219  29.501  68.297  0.00  0.00    +0.021 A 
ATOM     21  C   LIG    1        4.226  28.981  69.129  0.00  0.00    +0.015 A 
ATOM     22  C   LIG    1        4.514  27.914  69.979  0.00  0.00    +0.050 A 
ATOM     23  C   LIG    1        5.796  27.363  69.998  0.00  0.00    +0.158 A 
ATOM     24  C   LIG    1        6.789  27.882  69.168  0.00  0.00    +0.159 A 
ATOM     29  C   LIG    1        6.501  28.949  68.318  0.00  0.00    +0.060 A 
BRANCH  24  25
ATOM     25  O   LIG    1        8.044  27.350  69.177  0.00  0.00    -0.503 OA
ATOM     26  H   LIG    1        7.987  26.436  69.503  0.00  0.00    +0.292 HD
ENDBRANCH  24  25
BRANCH  23  27
ATOM     27  O   LIG    1        6.065  26.321  70.834  0.00  0.00    -0.503 OA
ATOM     28  H   LIG    1        5.284  26.149  71.388  0.00  0.00    +0.292 HD
ENDBRANCH  23  27
ENDBRANCH  19  20
BRANCH  15  33
ATOM     33  O   LIG    1        4.166  34.870  64.720  0.00  0.00    -0.506 OA
ATOM     34  H   LIG    1        4.872  35.084  64.092  0.00  0.00    +0.292 HD
ENDBRANCH  15  33
BRANCH  13  12
ATOM     12  O   LIG    1        1.901  31.478  62.283  0.00  0.00    -0.461 OA
BRANCH  12   2
ATOM      1  O   LIG    1       -0.066  30.233  62.129  0.00  0.00    -0.331 OA
ATOM      2  C   LIG    1        0.485  31.506  62.455  0.00  0.00    +0.339 C 
ATOM      3  C   LIG    1       -0.079  32.587  61.532  0.00  0.00    +0.214 C 
ATOM      4  C   LIG    1       -1.609  32.584  61.542  0.00  0.00    +0.180 C 
ATOM      5  C   LIG    1       -2.160  31.171  61.348  0.00  0.00    +0.177 C 
ATOM     36  C   LIG    1       -1.484  30.188  62.305  0.00  0.00    +0.179 C 
BRANCH   5   6
ATOM      6  O   LIG    1       -3.565  31.176  61.592  0.00  0.00    -0.386 OA
ATOM      7  H   LIG    1       -3.861  30.252  61.654  0.00  0.00    +0.210 HD
ENDBRANCH   5   6
BRANCH   4   8
ATOM      8  O   LIG    1       -2.092  33.399  60.473  0.00  0.00    -0.386 OA
ATOM      9  H   LIG    1       -1.317  33.769  60.016  0.00  0.00    +0.210 HD
ENDBRANCH   4   8
BRANCH   3  10
ATOM     10  O   LIG    1        0.394  33.855  61.985  0.00  0.00    -0.383 OA
ATOM     11  H   LIG    1        0.497  33.811  62.951  0.00  0.00    +0.210 HD
ENDBRANCH   3  10
BRANCH  36  37
ATOM     37  C   LIG    1       -1.933  28.752  62.050  0.00  0.00    +0.190 C 
BRANCH  37  38
ATOM     38  O   LIG    1       -2.252  28.618  60.677  0.00  0.00    -0.392 OA
ATOM     39  H   LIG    1       -3.175  28.319  60.616  0.00  0.00    +0.210 HD
ENDBRANCH  37  38
ENDBRANCH  36  37
ENDBRANCH  12   2
ENDBRANCH  13  12
TORSDOF 11
ENDMDL
MODEL 5
REMARK VINA RESULT:      -7.4      4.243     11.385
REMARK  Name = 5280637
REMARK                            x       y       z     vdW  Elec       q    Type
REMARK                         _______ _______ _______ _____ _____    ______ ____
ROOT
ATOM     13  C   LIG    1       -2.102  31.902  63.319  0.00  0.00    +0.131 A 
ATOM     14  C   LIG    1       -1.878  32.291  61.998  0.00  0.00    +0.092 A 
ATOM     15  C   LIG    1       -0.586  32.588  61.564  0.00  0.00    +0.135 A 
ATOM     16  C   LIG    1        0.481  32.494  62.460  0.00  0.00    +0.105 A 
ATOM     17  C   LIG    1        1.854  32.803  62.032  0.00  0.00    +0.197 A 
ATOM     18  C   LIG    1        2.904  32.668  63.062  0.00  0.00    +0.098 A 
ATOM     19  C   LIG    1        2.565  32.279  64.301  0.00  0.00    +0.139 A 
ATOM     30  O   LIG    1        1.269  31.997  64.704  0.00  0.00    -0.454 OA
ATOM     31  O   LIG    1        2.120  33.152  60.891  0.00  0.00    -0.287 OA
ATOM     32  C   LIG    1        0.259  32.105  63.781  0.00  0.00    +0.146 A 
ATOM     35  C   LIG    1       -1.033  31.809  64.213  0.00  0.00    +0.093 A 
ENDROOT
BRANCH  19  20
ATOM     20  C   LIG    1        3.571  32.136  65.374  0.00  0.00    +0.021 A 
ATOM     21  C   LIG    1        3.395  32.795  66.592  0.00  0.00    +0.015 A 
ATOM     22  C   LIG    1        4.345  32.660  67.604  0.00  0.00    +0.050 A 
ATOM     23  C   LIG    1        5.474  31.865  67.400  0.00  0.00    +0.158 A 
ATOM     24  C   LIG    1        5.652  31.207  66.184  0.00  0.00    +0.159 A 
ATOM     29  C   LIG    1        4.702  31.341  65.172  0.00  0.00    +0.060 A 
BRANCH  24  25
ATOM     25  O   LIG    1        6.750  30.427  65.975  0.00  0.00    -0.503 OA
ATOM     26  H   LIG    1        7.531  31.004  65.928  0.00  0.00    +0.292 HD
ENDBRANCH  24  25
BRANCH  23  27
ATOM     27  O   LIG    1        6.395  31.743  68.396  0.00  0.00    -0.503 OA
ATOM     28  H   LIG    1        6.017  31.206  69.114  0.00  0.00    +0.292 HD
ENDBRANCH  23  27
ENDBRANCH  19  20
BRANCH  15  33
ATOM     33  O   LIG    1       -0.420  32.964  60.265  0.00  0.00    -0.506 OA
ATOM     34  H   LIG    1        0.254  32.417  59.835  0.00  0.00    +0.292 HD
ENDBRANCH  15  33
BRANCH  13  12
ATOM     12  O   LIG    1       -3.367  31.613  63.739  0.00  0.00    -0.461 OA
BRANCH  12   2
ATOM      1  O   LIG    1       -5.254  32.959  63.472  0.00  0.00    -0.331 OA
ATOM      2  C   LIG    1       -4.430  31.972  62.857  0.00  0.00    +0.339 C 
ATOM      3  C   LIG    1       -5.238  30.709  62.557  0.00  0.00    +0.214 C 
ATOM      4  C   LIG    1       -6.488  31.031  61.737  0.00  0.00    +0.180 C 
ATOM      5  C   LIG    1       -7.261  32.202  62.342  0.00  0.00    +0.177 C 
ATOM     36  C   LIG    1       -6.327  33.380  62.627  0.00  0.00    +0.179 C 
BRANCH   5   6
ATOM      6  O   LIG    1       -8.278  32.616  61.433  0.00  0.00    -0.386 OA
ATOM      7  H   LIG    1       -7.866  32.746  60.562  0.00  0.00    +0.210 HD
ENDBRANCH   5   6
BRANCH   4   8
ATOM      8  O   LIG    1       -7.351  29.892  61.719  0.00  0.00    -0.386 OA
ATOM      9  H   LIG    1       -8.260  30.215  61.844  0.00  0.00    +0.210 HD
ENDBRANCH   4   8
BRANCH   3  10
ATOM     10  O   LIG    1       -4.408  29.810  61.823  0.00  0.00    -0.383 OA
ATOM     11  H   LIG    1       -4.902  29.517  61.038  0.00  0.00    +0.210 HD
ENDBRANCH   3  10
BRANCH  36  37
ATOM     37  C   LIG    1       -7.053  34.517  63.339  0.00  0.00    +0.190 C 
BRANCH  37  38
ATOM     38  O   LIG    1       -7.668  35.339  62.364  0.00  0.00    -0.392 OA
ATOM     39  H   LIG    1       -8.124  36.061  62.831  0.00  0.00    +0.210 HD
ENDBRANCH  37  38
ENDBRANCH  36  37
ENDBRANCH  12   2
ENDBRANCH  13  12
TORSDOF 11
ENDMDL
MODEL 6
REMARK VINA RESULT:      -7.2      4.506      8.533
REMARK  Name = 5280637
REMARK                            x       y       z     vdW  Elec       q    Type
REMARK                         _______ _______ _______ _____ _____    ______ ____
ROOT
ATOM     13  C   LIG    1      -10.732  31.563  57.229  0.00  0.00    +0.131 A 
ATOM     14  C   LIG    1      -10.917  30.219  56.905  0.00  0.00    +0.092 A 
ATOM     15  C   LIG    1      -12.141  29.782  56.397  0.00  0.00    +0.135 A 
ATOM     16  C   LIG    1      -13.178  30.700  56.215  0.00  0.00    +0.105 A 
ATOM     17  C   LIG    1      -14.480  30.270  55.683  0.00  0.00    +0.197 A 
ATOM     18  C   LIG    1      -15.504  31.324  55.531  0.00  0.00    +0.098 A 
ATOM     19  C   LIG    1      -15.203  32.587  55.872  0.00  0.00    +0.139 A 
ATOM     30  O   LIG    1      -13.977  32.988  56.381  0.00  0.00    -0.454 OA
ATOM     31  O   LIG    1      -14.711  29.107  55.382  0.00  0.00    -0.287 OA
ATOM     32  C   LIG    1      -12.994  32.044  56.538  0.00  0.00    +0.146 A 
ATOM     35  C   LIG    1      -11.770  32.478  57.046  0.00  0.00    +0.093 A 
ENDROOT
BRANCH  19  20
ATOM     20  C   LIG    1      -16.189  33.680  55.750  0.00  0.00    +0.021 A 
ATOM     21  C   LIG    1      -17.301  33.531  54.919  0.00  0.00    +0.015 A 
ATOM     22  C   LIG    1      -18.231  34.564  54.802  0.00  0.00    +0.050 A 
ATOM     23  C   LIG    1      -18.051  35.749  55.517  0.00  0.00    +0.158 A 
ATOM     24  C   LIG    1      -16.940  35.901  56.347  0.00  0.00    +0.159 A 
ATOM     29  C   LIG    1      -16.010  34.867  56.464  0.00  0.00    +0.060 A 
BRANCH  24  25
ATOM     25  O   LIG    1      -16.756  37.053  57.051  0.00  0.00    -0.503 OA
ATOM     26  H   LIG    1      -17.379  37.059  57.797  0.00  0.00    +0.292 HD
ENDBRANCH  24  25
BRANCH  23  27
ATOM     27  O   LIG    1      -18.966  36.751  55.394  0.00  0.00    -0.503 OA
ATOM     28  H   LIG    1      -19.107  37.161  56.265  0.00  0.00    +0.292 HD
ENDBRANCH  23  27
ENDBRANCH  19  20
BRANCH  15  33
ATOM     33  O   LIG    1      -12.271  28.460  56.097  0.00  0.00    -0.506 OA
ATOM     34  H   LIG    1      -12.908  28.335  55.377  0.00  0.00    +0.292 HD
ENDBRANCH  15  33
BRANCH  13  12
ATOM     12  O   LIG    1       -9.533  31.985  57.725  0.00  0.00    -0.461 OA
BRANCH  12   2
ATOM      1  O   LIG    1       -9.461  32.836  59.896  0.00  0.00    -0.331 OA
ATOM      2  C   LIG    1       -9.265  31.676  59.092  0.00  0.00    +0.339 C 
ATOM      3  C   LIG    1       -7.817  31.195  59.190  0.00  0.00    +0.214 C 
ATOM      4  C   LIG    1       -7.397  30.984  60.645  0.00  0.00    +0.180 C 
ATOM      5  C   LIG    1       -7.771  32.189  61.509  0.00  0.00    +0.177 C 
ATOM     36  C   LIG    1       -9.231  32.586  61.284  0.00  0.00    +0.179 C 
BRANCH   5   6
ATOM      6  O   LIG    1       -7.576  31.863  62.882  0.00  0.00    -0.386 OA
ATOM      7  H   LIG    1       -6.620  31.865  63.059  0.00  0.00    +0.210 HD
ENDBRANCH   5   6
BRANCH   4   8
ATOM      8  O   LIG    1       -5.980  30.814  60.712  0.00  0.00    -0.386 OA
ATOM      9  H   LIG    1       -5.609  31.135  59.872  0.00  0.00    +0.210 HD
ENDBRANCH   4   8
BRANCH   3  10
ATOM     10  O   LIG    1       -7.706  29.961  58.482  0.00  0.00    -0.383 OA
ATOM     11  H   LIG    1       -7.372  30.154  57.589  0.00  0.00    +0.210 HD
ENDBRANCH   3  10
BRANCH  36  37
ATOM     37  C   LIG    1       -9.594  33.857  62.047  0.00  0.00    +0.190 C 
BRANCH  37  38
ATOM     38  O   LIG    1       -9.809  34.898  61.111  0.00  0.00    -0.392 OA
ATOM     39  H   LIG    1      -10.742  35.164  61.175  0.00  0.00    +0.210 HD
ENDBRANCH  37  38
ENDBRANCH  36  37
ENDBRANCH  12   2
ENDBRANCH  13  12
TORSDOF 11
ENDMDL
MODEL 7
REMARK VINA RESULT:      -7.1      1.804      2.631
REMARK  Name = 5280637
REMARK                            x       y       z     vdW  Elec       q    Type
REMARK                         _______ _______ _______ _____ _____    ______ ____
ROOT
ATOM     13  C   LIG    1       -5.553  30.814  62.488  0.00  0.00    +0.131 A 
ATOM     14  C   LIG    1       -5.733  31.756  63.501  0.00  0.00    +0.092 A 
ATOM     15  C   LIG    1       -6.776  32.680  63.422  0.00  0.00    +0.135 A 
ATOM     16  C   LIG    1       -7.636  32.656  62.322  0.00  0.00    +0.105 A 
ATOM     17  C   LIG    1       -8.742  33.618  62.209  0.00  0.00    +0.197 A 
ATOM     18  C   LIG    1       -9.590  33.500  61.005  0.00  0.00    +0.098 A 
ATOM     19  C   LIG    1       -9.319  32.546  60.101  0.00  0.00    +0.139 A 
ATOM     30  O   LIG    1       -8.270  31.645  60.206  0.00  0.00    -0.454 OA
ATOM     31  O   LIG    1       -8.955  34.472  63.059  0.00  0.00    -0.287 OA
ATOM     32  C   LIG    1       -7.457  31.715  61.309  0.00  0.00    +0.146 A 
ATOM     35  C   LIG    1       -6.414  30.793  61.390  0.00  0.00    +0.093 A 
ENDROOT
BRANCH  19  20
ATOM     20  C   LIG    1      -10.127  32.386  58.874  0.00  0.00    +0.021 A 
ATOM     21  C   LIG    1      -10.990  33.405  58.466  0.00  0.00    +0.015 A 
ATOM     22  C   LIG    1      -11.754  33.253  57.309  0.00  0.00    +0.050 A 
ATOM     23  C   LIG    1      -11.655  32.083  56.556  0.00  0.00    +0.158 A 
ATOM     24  C   LIG    1      -10.794  31.063  56.963  0.00  0.00    +0.159 A 
ATOM     29  C   LIG    1      -10.031  31.215  58.120  0.00  0.00    +0.060 A 
BRANCH  24  25
ATOM     25  O   LIG    1      -10.689  29.916  56.234  0.00  0.00    -0.503 OA
ATOM     26  H   LIG    1      -10.806  30.139  55.295  0.00  0.00    +0.292 HD
ENDBRANCH  24  25
BRANCH  23  27
ATOM     27  O   LIG    1      -12.407  31.946  55.429  0.00  0.00    -0.503 OA
ATOM     28  H   LIG    1      -12.571  31.001  55.269  0.00  0.00    +0.292 HD
ENDBRANCH  23  27
ENDBRANCH  19  20
BRANCH  15  33
ATOM     33  O   LIG    1       -6.909  33.580  64.437  0.00  0.00    -0.506 OA
ATOM     34  H   LIG    1       -7.552  34.265  64.201  0.00  0.00    +0.292 HD
ENDBRANCH  15  33
BRANCH  13  12
ATOM     12  O   LIG    1       -4.532  29.913  62.570  0.00  0.00    -0.461 OA
BRANCH  12   2
ATOM      1  O   LIG    1       -3.076  31.305  63.748  0.00  0.00    -0.331 OA
ATOM      2  C   LIG    1       -3.210  30.449  62.616  0.00  0.00    +0.339 C 
ATOM      3  C   LIG    1       -2.974  31.229  61.322  0.00  0.00    +0.214 C 
ATOM      4  C   LIG    1       -1.633  31.964  61.353  0.00  0.00    +0.180 C 
ATOM      5  C   LIG    1       -1.459  32.743  62.657  0.00  0.00    +0.177 C 
ATOM     36  C   LIG    1       -1.763  31.855  63.865  0.00  0.00    +0.179 C 
BRANCH   5   6
ATOM      6  O   LIG    1       -0.118  33.219  62.746  0.00  0.00    -0.386 OA
ATOM      7  H   LIG    1        0.349  32.678  63.405  0.00  0.00    +0.210 HD
ENDBRANCH   5   6
BRANCH   4   8
ATOM      8  O   LIG    1       -1.576  32.894  60.270  0.00  0.00    -0.386 OA
ATOM      9  H   LIG    1       -0.818  32.645  59.713  0.00  0.00    +0.210 HD
ENDBRANCH   4   8
BRANCH   3  10
ATOM     10  O   LIG    1       -2.984  30.306  60.234  0.00  0.00    -0.383 OA
ATOM     11  H   LIG    1       -2.452  30.686  59.513  0.00  0.00    +0.210 HD
ENDBRANCH   3  10
BRANCH  36  37
ATOM     37  C   LIG    1       -1.709  32.642  65.171  0.00  0.00    +0.190 C 
BRANCH  37  38
ATOM     38  O   LIG    1       -0.872  31.951  66.080  0.00  0.00    -0.392 OA
ATOM     39  H   LIG    1       -1.393  31.765  66.879  0.00  0.00    +0.210 HD
ENDBRANCH  37  38
ENDBRANCH  36  37
ENDBRANCH  12   2
ENDBRANCH  13  12
TORSDOF 11
ENDMDL
MODEL 8
REMARK VINA RESULT:      -7.0      7.046     13.342
REMARK  Name = 5280637
REMARK                            x       y       z     vdW  Elec       q    Type
REMARK                         _______ _______ _______ _____ _____    ______ ____
ROOT
ATOM     13  C   LIG    1        1.599  31.029  64.444  0.00  0.00    +0.131 A 
ATOM     14  C   LIG    1        1.925  32.369  64.238  0.00  0.00    +0.092 A 
ATOM     15  C   LIG    1        3.021  32.932  64.894  0.00  0.00    +0.135 A 
ATOM     16  C   LIG    1        3.787  32.146  65.757  0.00  0.00    +0.105 A 
ATOM     17  C   LIG    1        4.946  32.712  66.463  0.00  0.00    +0.197 A 
ATOM     18  C   LIG    1        5.685  31.789  67.349  0.00  0.00    +0.098 A 
ATOM     19  C   LIG    1        5.276  30.515  67.460  0.00  0.00    +0.139 A 
ATOM     30  O   LIG    1        4.178  29.986  66.799  0.00  0.00    -0.454 OA
ATOM     31  O   LIG    1        5.286  33.879  66.331  0.00  0.00    -0.287 OA
ATOM     32  C   LIG    1        3.462  30.805  65.963  0.00  0.00    +0.146 A 
ATOM     35  C   LIG    1        2.366  30.245  65.307  0.00  0.00    +0.093 A 
ENDROOT
BRANCH  19  20
ATOM     20  C   LIG    1        5.970  29.550  68.337  0.00  0.00    +0.021 A 
ATOM     21  C   LIG    1        7.359  29.598  68.471  0.00  0.00    +0.015 A 
ATOM     22  C   LIG    1        8.015  28.686  69.298  0.00  0.00    +0.050 A 
ATOM     23  C   LIG    1        7.283  27.724  69.994  0.00  0.00    +0.158 A 
ATOM     24  C   LIG    1        5.895  27.673  69.861  0.00  0.00    +0.159 A 
ATOM     29  C   LIG    1        5.239  28.585  69.034  0.00  0.00    +0.060 A 
BRANCH  24  25
ATOM     25  O   LIG    1        5.170  26.739  70.538  0.00  0.00    -0.503 OA
ATOM     26  H   LIG    1        4.227  26.891  70.355  0.00  0.00    +0.292 HD
ENDBRANCH  24  25
BRANCH  23  27
ATOM     27  O   LIG    1        7.934  26.838  70.797  0.00  0.00    -0.503 OA
ATOM     28  H   LIG    1        7.431  26.728  71.623  0.00  0.00    +0.292 HD
ENDBRANCH  23  27
ENDBRANCH  19  20
BRANCH  15  33
ATOM     33  O   LIG    1        3.298  34.246  64.659  0.00  0.00    -0.506 OA
ATOM     34  H   LIG    1        2.921  34.527  63.812  0.00  0.00    +0.292 HD
ENDBRANCH  15  33
BRANCH  13  12
ATOM     12  O   LIG    1        0.526  30.482  63.801  0.00  0.00    -0.461 OA
BRANCH  12   2
ATOM      1  O   LIG    1       -1.262  31.979  63.861  0.00  0.00    -0.331 OA
ATOM      2  C   LIG    1       -0.276  31.374  63.029  0.00  0.00    +0.339 C 
ATOM      3  C   LIG    1       -0.939  30.563  61.915  0.00  0.00    +0.214 C 
ATOM      4  C   LIG    1       -1.937  31.412  61.127  0.00  0.00    +0.180 C 
ATOM      5  C   LIG    1       -2.877  32.173  62.063  0.00  0.00    +0.177 C 
ATOM     36  C   LIG    1       -2.086  32.905  63.149  0.00  0.00    +0.179 C 
BRANCH   5   6
ATOM      6  O   LIG    1       -3.630  33.119  61.309  0.00  0.00    -0.386 OA
ATOM      7  H   LIG    1       -3.004  33.734  60.888  0.00  0.00    +0.210 HD
ENDBRANCH   5   6
BRANCH   4   8
ATOM      8  O   LIG    1       -2.731  30.564  60.296  0.00  0.00    -0.386 OA
ATOM      9  H   LIG    1       -2.408  30.667  59.384  0.00  0.00    +0.210 HD
ENDBRANCH   4   8
BRANCH   3  10
ATOM     10  O   LIG    1        0.081  30.093  61.034  0.00  0.00    -0.383 OA
ATOM     11  H   LIG    1        0.835  30.705  61.092  0.00  0.00    +0.210 HD
ENDBRANCH   3  10
BRANCH  36  37
ATOM     37  C   LIG    1       -3.007  33.575  64.164  0.00  0.00    +0.190 C 
BRANCH  37  38
ATOM     38  O   LIG    1       -2.210  34.253  65.117  0.00  0.00    -0.392 OA
ATOM     39  H   LIG    1       -1.904  35.082  64.711  0.00  0.00    +0.210 HD
ENDBRANCH  37  38
ENDBRANCH  36  37
ENDBRANCH  12   2
ENDBRANCH  13  12
TORSDOF 11
ENDMDL
MODEL 9
REMARK VINA RESULT:      -6.9      2.120      8.936
REMARK  Name = 5280637
REMARK                            x       y       z     vdW  Elec       q    Type
REMARK                         _______ _______ _______ _____ _____    ______ ____
ROOT
ATOM     13  C   LIG    1       -7.625  32.693  62.454  0.00  0.00    +0.131 A 
ATOM     14  C   LIG    1       -7.985  31.388  62.788  0.00  0.00    +0.092 A 
ATOM     15  C   LIG    1       -7.023  30.377  62.804  0.00  0.00    +0.135 A 
ATOM     16  C   LIG    1       -5.698  30.682  62.484  0.00  0.00    +0.105 A 
ATOM     17  C   LIG    1       -4.662  29.638  62.491  0.00  0.00    +0.197 A 
ATOM     18  C   LIG    1       -3.295  30.073  62.139  0.00  0.00    +0.098 A 
ATOM     19  C   LIG    1       -3.071  31.363  61.842  0.00  0.00    +0.139 A 
ATOM     30  O   LIG    1       -4.051  32.343  61.828  0.00  0.00    -0.454 OA
ATOM     31  O   LIG    1       -4.909  28.474  62.771  0.00  0.00    -0.287 OA
ATOM     32  C   LIG    1       -5.336  31.987  62.151  0.00  0.00    +0.146 A 
ATOM     35  C   LIG    1       -6.300  32.995  62.135  0.00  0.00    +0.093 A 
ENDROOT
BRANCH  19  20
ATOM     20  C   LIG    1       -1.727  31.854  61.474  0.00  0.00    +0.021 A 
ATOM     21  C   LIG    1       -0.645  30.972  61.437  0.00  0.00    +0.015 A 
ATOM     22  C   LIG    1        0.625  31.436  61.092  0.00  0.00    +0.050 A 
ATOM     23  C   LIG    1        0.815  32.783  60.781  0.00  0.00    +0.158 A 
ATOM     24  C   LIG    1       -0.265  33.665  60.818  0.00  0.00    +0.159 A 
ATOM     29  C   LIG    1       -1.534  33.202  61.164  0.00  0.00    +0.060 A 
BRANCH  24  25
ATOM     25  O   LIG    1       -0.090  34.983  60.515  0.00  0.00    -0.503 OA
ATOM     26  H   LIG    1       -0.877  35.293  60.035  0.00  0.00    +0.292 HD
ENDBRANCH  24  25
BRANCH  23  27
ATOM     27  O   LIG    1        2.059  33.223  60.446  0.00  0.00    -0.503 OA
ATOM     28  H   LIG    1        2.128  33.271  59.477  0.00  0.00    +0.292 HD
ENDBRANCH  23  27
ENDBRANCH  19  20
BRANCH  15  33
ATOM     33  O   LIG    1       -7.426  29.119  63.135  0.00  0.00    -0.506 OA
ATOM     34  H   LIG    1       -8.302  28.933  62.766  0.00  0.00    +0.292 HD
ENDBRANCH  15  33
BRANCH  13  12
ATOM     12  O   LIG    1       -8.569  33.677  62.439  0.00  0.00    -0.461 OA
BRANCH  12   2
ATOM      1  O   LIG    1       -9.582  33.157  60.402  0.00  0.00    -0.331 OA
ATOM      2  C   LIG    1       -9.804  33.367  61.794  0.00  0.00    +0.339 C 
ATOM      3  C   LIG    1      -10.757  34.543  62.014  0.00  0.00    +0.214 C 
ATOM      4  C   LIG    1      -12.056  34.360  61.228  0.00  0.00    +0.180 C 
ATOM      5  C   LIG    1      -11.775  33.977  59.775  0.00  0.00    +0.177 C 
ATOM     36  C   LIG    1      -10.780  32.817  59.702  0.00  0.00    +0.179 C 
BRANCH   5   6
ATOM      6  O   LIG    1      -12.994  33.593  59.144  0.00  0.00    -0.386 OA
ATOM      7  H   LIG    1      -13.267  34.317  58.555  0.00  0.00    +0.210 HD
ENDBRANCH   5   6
BRANCH   4   8
ATOM      8  O   LIG    1      -12.789  35.586  61.230  0.00  0.00    -0.386 OA
ATOM      9  H   LIG    1      -13.231  35.659  62.094  0.00  0.00    +0.210 HD
ENDBRANCH   4   8
BRANCH   3  10
ATOM     10  O   LIG    1      -11.054  34.625  63.408  0.00  0.00    -0.383 OA
ATOM     11  H   LIG    1      -11.861  35.156  63.513  0.00  0.00    +0.210 HD
ENDBRANCH   3  10
BRANCH  36  37
ATOM     37  C   LIG    1      -10.394  32.495  58.261  0.00  0.00    +0.190 C 
BRANCH  37  38
ATOM     38  O   LIG    1      -10.747  33.596  57.444  0.00  0.00    -0.392 OA
ATOM     39  H   LIG    1      -10.500  34.408  57.919  0.00  0.00    +0.210 HD
ENDBRANCH  37  38
ENDBRANCH  36  37
ENDBRANCH  12   2
ENDBRANCH  13  12
TORSDOF 11
ENDMDL
