MODEL 1
REMARK VINA RESULT:      -7.9      0.000      0.000
REMARK  Name = 5280805
REMARK                            x       y       z     vdW  Elec       q    Type
REMARK                         _______ _______ _______ _____ _____    ______ ____
ROOT
ATOM      1  O   LIG    1       -1.935  32.469  62.418  0.00  0.00    -0.331 OA
ATOM      2  C   LIG    1       -0.668  32.992  62.026  0.00  0.00    +0.340 C 
ATOM      3  C   LIG    1       -0.829  33.979  60.869  0.00  0.00    +0.214 C 
ATOM      4  C   LIG    1       -1.841  35.073  61.209  0.00  0.00    +0.180 C 
ATOM      5  C   LIG    1       -3.130  34.478  61.777  0.00  0.00    +0.177 C 
ATOM     38  C   LIG    1       -2.821  33.482  62.898  0.00  0.00    +0.179 C 
ENDROOT
BRANCH   5   6
ATOM      6  O   LIG    1       -3.946  35.527  62.291  0.00  0.00    -0.386 OA
ATOM      7  H   LIG    1       -3.379  36.301  62.448  0.00  0.00    +0.210 HD
ENDBRANCH   5   6
BRANCH   4   8
ATOM      8  O   LIG    1       -2.175  35.797  60.023  0.00  0.00    -0.386 OA
ATOM      9  H   LIG    1       -1.358  35.900  59.506  0.00  0.00    +0.210 HD
ENDBRANCH   4   8
BRANCH   3  10
ATOM     10  O   LIG    1        0.442  34.573  60.607  0.00  0.00    -0.383 OA
ATOM     11  H   LIG    1        0.973  33.937  60.100  0.00  0.00    +0.210 HD
ENDBRANCH   3  10
BRANCH   2  12
ATOM     12  O   LIG    1        0.176  31.930  61.583  0.00  0.00    -0.453 OA
BRANCH  12  13
ATOM     13  C   LIG    1        0.887  31.379  62.626  0.00  0.00    +0.214 A 
ATOM     14  C   LIG    1        2.201  31.977  62.967  0.00  0.00    +0.238 A 
ATOM     15  C   LIG    1        2.919  31.374  64.100  0.00  0.00    +0.109 A 
ATOM     16  C   LIG    1        4.166  31.864  64.498  0.00  0.00    +0.135 A 
ATOM     17  C   LIG    1        4.824  31.275  65.579  0.00  0.00    +0.091 A 
ATOM     18  C   LIG    1        4.240  30.203  66.256  0.00  0.00    +0.124 A 
ATOM     19  C   LIG    1        2.995  29.717  65.856  0.00  0.00    +0.092 A 
ATOM     24  C   LIG    1        2.335  30.305  64.776  0.00  0.00    +0.147 A 
ATOM     25  O   LIG    1        1.115  29.784  64.430  0.00  0.00    -0.451 OA
ATOM     26  O   LIG    1        2.662  32.922  62.340  0.00  0.00    -0.283 OA
ATOM     27  C   LIG    1        0.439  30.340  63.355  0.00  0.00    +0.181 A 
BRANCH  27  28
ATOM     28  C   LIG    1       -0.856  29.689  63.091  0.00  0.00    +0.025 A 
ATOM     29  C   LIG    1       -1.136  29.179  61.824  0.00  0.00    +0.015 A 
ATOM     30  C   LIG    1       -2.362  28.563  61.574  0.00  0.00    +0.050 A 
ATOM     31  C   LIG    1       -3.310  28.458  62.593  0.00  0.00    +0.158 A 
ATOM     32  C   LIG    1       -3.031  28.967  63.860  0.00  0.00    +0.159 A 
ATOM     37  C   LIG    1       -1.804  29.583  64.109  0.00  0.00    +0.060 A 
BRANCH  32  33
ATOM     33  O   LIG    1       -3.948  28.869  64.863  0.00  0.00    -0.503 OA
ATOM     34  H   LIG    1       -4.631  28.224  64.619  0.00  0.00    +0.292 HD
ENDBRANCH  32  33
BRANCH  31  35
ATOM     35  O   LIG    1       -4.504  27.855  62.337  0.00  0.00    -0.503 OA
ATOM     36  H   LIG    1       -5.200  28.527  62.259  0.00  0.00    +0.292 HD
ENDBRANCH  31  35
ENDBRANCH  27  28
BRANCH  18  20
ATOM     20  O   LIG    1        4.885  29.632  67.309  0.00  0.00    -0.507 OA
ATOM     21  H   LIG    1        4.420  28.815  67.559  0.00  0.00    +0.292 HD
ENDBRANCH  18  20
BRANCH  16  22
ATOM     22  O   LIG    1        4.779  32.907  63.873  0.00  0.00    -0.506 OA
ATOM     23  H   LIG    1        4.388  33.744  64.178  0.00  0.00    +0.292 HD
ENDBRANCH  16  22
ENDBRANCH  12  13
ENDBRANCH   2  12
BRANCH  38  39
ATOM     39  C   LIG    1       -4.083  32.789  63.401  0.00  0.00    +0.197 C 
BRANCH  39  40
ATOM     40  O   LIG    1       -4.965  32.583  62.307  0.00  0.00    -0.346 OA
BRANCH  40  41
ATOM     41  C   LIG    1       -5.439  31.242  62.265  0.00  0.00    +0.282 C 
ATOM     42  C   LIG    1       -6.354  30.980  63.460  0.00  0.00    +0.201 C 
ATOM     43  C   LIG    1       -7.677  31.733  63.310  0.00  0.00    +0.179 C 
ATOM     44  C   LIG    1       -8.322  31.442  61.954  0.00  0.00    +0.174 C 
ATOM     45  C   LIG    1       -7.312  31.688  60.826  0.00  0.00    +0.149 C 
ATOM     46  C   LIG    1       -7.862  31.271  59.464  0.00  0.00    +0.041 C 
ATOM     53  O   LIG    1       -6.110  30.938  61.038  0.00  0.00    -0.343 OA
BRANCH  44  47
ATOM     47  O   LIG    1       -9.448  32.304  61.805  0.00  0.00    -0.387 OA
ATOM     48  H   LIG    1      -10.046  32.144  62.554  0.00  0.00    +0.210 HD
ENDBRANCH  44  47
BRANCH  43  49
ATOM     49  O   LIG    1       -8.575  31.351  64.349  0.00  0.00    -0.386 OA
ATOM     50  H   LIG    1       -8.065  30.859  65.015  0.00  0.00    +0.210 HD
ENDBRANCH  43  49
BRANCH  42  51
ATOM     51  O   LIG    1       -6.599  29.574  63.521  0.00  0.00    -0.384 OA
ATOM     52  H   LIG    1       -6.290  29.245  64.382  0.00  0.00    +0.210 HD
ENDBRANCH  42  51
ENDBRANCH  40  41
ENDBRANCH  39  40
ENDBRANCH  38  39
TORSDOF 16
ENDMDL
MODEL 2
REMARK VINA RESULT:      -7.7      1.377      1.793
REMARK  Name = 5280805
REMARK                            x       y       z     vdW  Elec       q    Type
REMARK                         _______ _______ _______ _____ _____    ______ ____
ROOT
ATOM      1  O   LIG    1       -1.625  32.529  62.728  0.00  0.00    -0.331 OA
ATOM      2  C   LIG    1       -0.439  33.108  62.188  0.00  0.00    +0.340 C 
ATOM      3  C   LIG    1       -0.771  33.975  60.973  0.00  0.00    +0.214 C 
ATOM      4  C   LIG    1       -1.838  35.017  61.309  0.00  0.00    +0.180 C 
ATOM      5  C   LIG    1       -3.025  34.381  62.031  0.00  0.00    +0.177 C 
ATOM     38  C   LIG    1       -2.549  33.513  63.198  0.00  0.00    +0.179 C 
ENDROOT
BRANCH   5   6
ATOM      6  O   LIG    1       -3.880  35.408  62.527  0.00  0.00    -0.386 OA
ATOM      7  H   LIG    1       -3.323  36.094  62.933  0.00  0.00    +0.210 HD
ENDBRANCH   5   6
BRANCH   4   8
ATOM      8  O   LIG    1       -2.321  35.609  60.101  0.00  0.00    -0.386 OA
ATOM      9  H   LIG    1       -2.850  36.386  60.349  0.00  0.00    +0.210 HD
ENDBRANCH   4   8
BRANCH   3  10
ATOM     10  O   LIG    1        0.423  34.637  60.556  0.00  0.00    -0.383 OA
ATOM     11  H   LIG    1        0.909  34.912  61.351  0.00  0.00    +0.210 HD
ENDBRANCH   3  10
BRANCH   2  12
ATOM     12  O   LIG    1        0.450  32.076  61.762  0.00  0.00    -0.453 OA
BRANCH  12  13
ATOM     13  C   LIG    1        1.114  31.508  62.827  0.00  0.00    +0.214 A 
ATOM     14  C   LIG    1        2.407  32.106  63.241  0.00  0.00    +0.238 A 
ATOM     15  C   LIG    1        3.073  31.483  64.395  0.00  0.00    +0.109 A 
ATOM     16  C   LIG    1        4.297  31.972  64.862  0.00  0.00    +0.135 A 
ATOM     17  C   LIG    1        4.906  31.364  65.960  0.00  0.00    +0.091 A 
ATOM     18  C   LIG    1        4.298  30.276  66.587  0.00  0.00    +0.124 A 
ATOM     19  C   LIG    1        3.076  29.792  66.119  0.00  0.00    +0.092 A 
ATOM     24  C   LIG    1        2.465  30.398  65.020  0.00  0.00    +0.147 A 
ATOM     25  O   LIG    1        1.265  29.878  64.606  0.00  0.00    -0.451 OA
ATOM     26  O   LIG    1        2.891  33.065  62.656  0.00  0.00    -0.283 OA
ATOM     27  C   LIG    1        0.638  30.452  63.512  0.00  0.00    +0.181 A 
BRANCH  27  28
ATOM     28  C   LIG    1       -0.639  29.800  63.174  0.00  0.00    +0.025 A 
ATOM     29  C   LIG    1       -1.542  29.467  64.184  0.00  0.00    +0.015 A 
ATOM     30  C   LIG    1       -2.751  28.850  63.864  0.00  0.00    +0.050 A 
ATOM     31  C   LIG    1       -3.058  28.565  62.533  0.00  0.00    +0.158 A 
ATOM     32  C   LIG    1       -2.157  28.899  61.523  0.00  0.00    +0.159 A 
ATOM     37  C   LIG    1       -0.947  29.516  61.843  0.00  0.00    +0.060 A 
BRANCH  32  33
ATOM     33  O   LIG    1       -2.446  28.627  60.219  0.00  0.00    -0.503 OA
ATOM     34  H   LIG    1       -1.735  28.964  59.650  0.00  0.00    +0.292 HD
ENDBRANCH  32  33
BRANCH  31  35
ATOM     35  O   LIG    1       -4.241  27.961  62.233  0.00  0.00    -0.503 OA
ATOM     36  H   LIG    1       -4.654  27.629  63.045  0.00  0.00    +0.292 HD
ENDBRANCH  31  35
ENDBRANCH  27  28
BRANCH  18  20
ATOM     20  O   LIG    1        4.896  29.686  67.658  0.00  0.00    -0.507 OA
ATOM     21  H   LIG    1        5.816  29.996  67.716  0.00  0.00    +0.292 HD
ENDBRANCH  18  20
BRANCH  16  22
ATOM     22  O   LIG    1        4.933  33.030  64.287  0.00  0.00    -0.506 OA
ATOM     23  H   LIG    1        5.080  33.722  64.955  0.00  0.00    +0.292 HD
ENDBRANCH  16  22
ENDBRANCH  12  13
ENDBRANCH   2  12
BRANCH  38  39
ATOM     39  C   LIG    1       -3.707  32.774  63.863  0.00  0.00    +0.197 C 
BRANCH  39  40
ATOM     40  O   LIG    1       -4.856  32.876  63.034  0.00  0.00    -0.346 OA
BRANCH  40  41
ATOM     41  C   LIG    1       -6.029  32.444  63.715  0.00  0.00    +0.282 C 
ATOM     42  C   LIG    1       -6.553  33.570  64.605  0.00  0.00    +0.201 C 
ATOM     43  C   LIG    1       -7.137  34.705  63.762  0.00  0.00    +0.179 C 
ATOM     44  C   LIG    1       -8.163  34.172  62.762  0.00  0.00    +0.174 C 
ATOM     45  C   LIG    1       -7.560  33.017  61.953  0.00  0.00    +0.149 C 
ATOM     46  C   LIG    1       -8.593  32.355  61.043  0.00  0.00    +0.041 C 
ATOM     53  O   LIG    1       -7.048  31.996  62.816  0.00  0.00    -0.343 OA
BRANCH  44  47
ATOM     47  O   LIG    1       -8.535  35.241  61.895  0.00  0.00    -0.387 OA
ATOM     48  H   LIG    1       -8.257  35.004  60.995  0.00  0.00    +0.210 HD
ENDBRANCH  44  47
BRANCH  43  49
ATOM     49  O   LIG    1       -7.762  35.667  64.609  0.00  0.00    -0.386 OA
ATOM     50  H   LIG    1       -8.656  35.831  64.263  0.00  0.00    +0.210 HD
ENDBRANCH  43  49
BRANCH  42  51
ATOM     51  O   LIG    1       -7.564  33.021  65.451  0.00  0.00    -0.384 OA
ATOM     52  H   LIG    1       -7.201  32.234  65.893  0.00  0.00    +0.210 HD
ENDBRANCH  42  51
ENDBRANCH  40  41
ENDBRANCH  39  40
ENDBRANCH  38  39
TORSDOF 16
ENDMDL
MODEL 3
REMARK VINA RESULT:      -7.6      2.219      8.512
REMARK  Name = 5280805
REMARK                            x       y       z     vdW  Elec       q    Type
REMARK                         _______ _______ _______ _____ _____    ______ ____
ROOT
ATOM      1  O   LIG    1       -0.241  32.200  63.219  0.00  0.00    -0.331 OA
ATOM      2  C   LIG    1       -1.493  32.438  62.580  0.00  0.00    +0.340 C 
ATOM      3  C   LIG    1       -1.468  33.768  61.828  0.00  0.00    +0.214 C 
ATOM      4  C   LIG    1       -0.288  33.836  60.858  0.00  0.00    +0.180 C 
ATOM      5  C   LIG    1        1.014  33.419  61.541  0.00  0.00    +0.177 C 
ATOM     38  C   LIG    1        0.837  32.094  62.286  0.00  0.00    +0.179 C 
ENDROOT
BRANCH   5   6
ATOM      6  O   LIG    1        2.036  33.273  60.558  0.00  0.00    -0.386 OA
ATOM      7  H   LIG    1        2.875  33.569  60.949  0.00  0.00    +0.210 HD
ENDBRANCH   5   6
BRANCH   4   8
ATOM      8  O   LIG    1       -0.132  35.178  60.392  0.00  0.00    -0.386 OA
ATOM      9  H   LIG    1       -0.908  35.387  59.844  0.00  0.00    +0.210 HD
ENDBRANCH   4   8
BRANCH   3  10
ATOM     10  O   LIG    1       -2.689  33.894  61.099  0.00  0.00    -0.383 OA
ATOM     11  H   LIG    1       -2.794  33.100  60.548  0.00  0.00    +0.210 HD
ENDBRANCH   3  10
BRANCH   2  12
ATOM     12  O   LIG    1       -2.528  32.507  63.561  0.00  0.00    -0.453 OA
BRANCH  12  13
ATOM     13  C   LIG    1       -3.350  31.403  63.510  0.00  0.00    +0.214 A 
ATOM     14  C   LIG    1       -4.572  31.482  62.674  0.00  0.00    +0.238 A 
ATOM     15  C   LIG    1       -5.411  30.275  62.630  0.00  0.00    +0.109 A 
ATOM     16  C   LIG    1       -6.586  30.249  61.872  0.00  0.00    +0.135 A 
ATOM     17  C   LIG    1       -7.362  29.089  61.846  0.00  0.00    +0.091 A 
ATOM     18  C   LIG    1       -6.967  27.964  62.570  0.00  0.00    +0.124 A 
ATOM     19  C   LIG    1       -5.794  27.993  63.325  0.00  0.00    +0.092 A 
ATOM     24  C   LIG    1       -5.016  29.152  63.353  0.00  0.00    +0.147 A 
ATOM     25  O   LIG    1       -3.874  29.120  64.111  0.00  0.00    -0.451 OA
ATOM     26  O   LIG    1       -4.866  32.496  62.055  0.00  0.00    -0.283 OA
ATOM     27  C   LIG    1       -3.086  30.259  64.168  0.00  0.00    +0.181 A 
BRANCH  27  28
ATOM     28  C   LIG    1       -1.892  30.090  65.014  0.00  0.00    +0.025 A 
ATOM     29  C   LIG    1       -1.828  30.710  66.263  0.00  0.00    +0.015 A 
ATOM     30  C   LIG    1       -0.698  30.550  67.064  0.00  0.00    +0.050 A 
ATOM     31  C   LIG    1        0.369  29.771  66.617  0.00  0.00    +0.158 A 
ATOM     32  C   LIG    1        0.306  29.151  65.370  0.00  0.00    +0.159 A 
ATOM     37  C   LIG    1       -0.825  29.311  64.569  0.00  0.00    +0.060 A 
BRANCH  32  33
ATOM     33  O   LIG    1        1.342  28.386  64.923  0.00  0.00    -0.503 OA
ATOM     34  H   LIG    1        1.905  28.130  65.672  0.00  0.00    +0.292 HD
ENDBRANCH  32  33
BRANCH  31  35
ATOM     35  O   LIG    1        1.468  29.623  67.408  0.00  0.00    -0.503 OA
ATOM     36  H   LIG    1        2.271  29.667  66.865  0.00  0.00    +0.292 HD
ENDBRANCH  31  35
ENDBRANCH  27  28
BRANCH  18  20
ATOM     20  O   LIG    1       -7.727  26.835  62.541  0.00  0.00    -0.507 OA
ATOM     21  H   LIG    1       -7.277  26.166  61.998  0.00  0.00    +0.292 HD
ENDBRANCH  18  20
BRANCH  16  22
ATOM     22  O   LIG    1       -7.016  31.318  61.146  0.00  0.00    -0.506 OA
ATOM     23  H   LIG    1       -7.772  31.053  60.595  0.00  0.00    +0.292 HD
ENDBRANCH  16  22
ENDBRANCH  12  13
ENDBRANCH   2  12
BRANCH  38  39
ATOM     39  C   LIG    1        2.089  31.715  63.072  0.00  0.00    +0.197 C 
BRANCH  39  40
ATOM     40  O   LIG    1        2.213  32.583  64.189  0.00  0.00    -0.346 OA
BRANCH  40  41
ATOM     41  C   LIG    1        3.107  32.055  65.163  0.00  0.00    +0.282 C 
ATOM     42  C   LIG    1        4.480  32.709  65.012  0.00  0.00    +0.201 C 
ATOM     43  C   LIG    1        4.439  34.172  65.456  0.00  0.00    +0.179 C 
ATOM     44  C   LIG    1        3.836  34.302  66.855  0.00  0.00    +0.174 C 
ATOM     45  C   LIG    1        2.486  33.575  66.918  0.00  0.00    +0.149 C 
ATOM     46  C   LIG    1        1.914  33.552  68.333  0.00  0.00    +0.041 C 
ATOM     53  O   LIG    1        2.617  32.212  66.498  0.00  0.00    -0.343 OA
BRANCH  44  47
ATOM     47  O   LIG    1        3.662  35.690  67.135  0.00  0.00    -0.387 OA
ATOM     48  H   LIG    1        3.165  36.082  66.398  0.00  0.00    +0.210 HD
ENDBRANCH  44  47
BRANCH  43  49
ATOM     49  O   LIG    1        5.757  34.716  65.460  0.00  0.00    -0.386 OA
ATOM     50  H   LIG    1        5.951  35.015  66.364  0.00  0.00    +0.210 HD
ENDBRANCH  43  49
BRANCH  42  51
ATOM     51  O   LIG    1        5.401  31.979  65.823  0.00  0.00    -0.384 OA
ATOM     52  H   LIG    1        6.074  32.598  66.156  0.00  0.00    +0.210 HD
ENDBRANCH  42  51
ENDBRANCH  40  41
ENDBRANCH  39  40
ENDBRANCH  38  39
TORSDOF 16
ENDMDL
MODEL 4
REMARK VINA RESULT:      -7.3      1.749      8.373
REMARK  Name = 5280805
REMARK                            x       y       z     vdW  Elec       q    Type
REMARK                         _______ _______ _______ _____ _____    ______ ____
ROOT
ATOM      1  O   LIG    1       -1.732  32.060  62.430  0.00  0.00    -0.331 OA
ATOM      2  C   LIG    1       -2.740  33.040  62.191  0.00  0.00    +0.340 C 
ATOM      3  C   LIG    1       -2.108  34.405  61.915  0.00  0.00    +0.214 C 
ATOM      4  C   LIG    1       -1.082  34.324  60.785  0.00  0.00    +0.180 C 
ATOM      5  C   LIG    1       -0.114  33.160  60.998  0.00  0.00    +0.177 C 
ATOM     38  C   LIG    1       -0.877  31.868  61.301  0.00  0.00    +0.179 C 
ENDROOT
BRANCH   5   6
ATOM      6  O   LIG    1        0.670  32.979  59.822  0.00  0.00    -0.386 OA
ATOM      7  H   LIG    1        0.988  33.851  59.535  0.00  0.00    +0.210 HD
ENDBRANCH   5   6
BRANCH   4   8
ATOM      8  O   LIG    1       -0.319  35.532  60.749  0.00  0.00    -0.386 OA
ATOM      9  H   LIG    1        0.474  35.391  61.294  0.00  0.00    +0.210 HD
ENDBRANCH   4   8
BRANCH   3  10
ATOM     10  O   LIG    1       -3.147  35.313  61.550  0.00  0.00    -0.383 OA
ATOM     11  H   LIG    1       -3.084  36.091  62.129  0.00  0.00    +0.210 HD
ENDBRANCH   3  10
BRANCH   2  12
ATOM     12  O   LIG    1       -3.573  33.165  63.343  0.00  0.00    -0.453 OA
BRANCH  12  13
ATOM     13  C   LIG    1       -4.852  32.717  63.096  0.00  0.00    +0.214 A 
ATOM     14  C   LIG    1       -5.893  33.723  62.775  0.00  0.00    +0.238 A 
ATOM     15  C   LIG    1       -7.240  33.202  62.496  0.00  0.00    +0.109 A 
ATOM     16  C   LIG    1       -8.291  34.069  62.186  0.00  0.00    +0.135 A 
ATOM     17  C   LIG    1       -9.559  33.547  61.924  0.00  0.00    +0.091 A 
ATOM     18  C   LIG    1       -9.774  32.169  61.971  0.00  0.00    +0.124 A 
ATOM     19  C   LIG    1       -8.722  31.307  62.280  0.00  0.00    +0.092 A 
ATOM     24  C   LIG    1       -7.454  31.826  62.543  0.00  0.00    +0.147 A 
ATOM     25  O   LIG    1       -6.460  30.929  62.841  0.00  0.00    -0.451 OA
ATOM     26  O   LIG    1       -5.645  34.921  62.743  0.00  0.00    -0.283 OA
ATOM     27  C   LIG    1       -5.191  31.415  63.117  0.00  0.00    +0.181 A 
BRANCH  27  28
ATOM     28  C   LIG    1       -4.221  30.349  63.419  0.00  0.00    +0.025 A 
ATOM     29  C   LIG    1       -3.830  30.113  64.737  0.00  0.00    +0.015 A 
ATOM     30  C   LIG    1       -2.911  29.104  65.023  0.00  0.00    +0.050 A 
ATOM     31  C   LIG    1       -2.382  28.330  63.990  0.00  0.00    +0.158 A 
ATOM     32  C   LIG    1       -2.772  28.564  62.673  0.00  0.00    +0.159 A 
ATOM     37  C   LIG    1       -3.691  29.574  62.387  0.00  0.00    +0.060 A 
BRANCH  32  33
ATOM     33  O   LIG    1       -2.263  27.813  61.656  0.00  0.00    -0.503 OA
ATOM     34  H   LIG    1       -2.924  27.163  61.368  0.00  0.00    +0.292 HD
ENDBRANCH  32  33
BRANCH  31  35
ATOM     35  O   LIG    1       -1.484  27.347  64.282  0.00  0.00    -0.503 OA
ATOM     36  H   LIG    1       -0.646  27.744  64.568  0.00  0.00    +0.292 HD
ENDBRANCH  31  35
ENDBRANCH  27  28
BRANCH  18  20
ATOM     20  O   LIG    1      -11.012  31.665  61.714  0.00  0.00    -0.507 OA
ATOM     21  H   LIG    1      -11.420  32.181  60.998  0.00  0.00    +0.292 HD
ENDBRANCH  18  20
BRANCH  16  22
ATOM     22  O   LIG    1       -8.136  35.421  62.126  0.00  0.00    -0.506 OA
ATOM     23  H   LIG    1       -7.446  35.639  61.476  0.00  0.00    +0.292 HD
ENDBRANCH  16  22
ENDBRANCH  12  13
ENDBRANCH   2  12
BRANCH  38  39
ATOM     39  C   LIG    1        0.069  30.718  61.632  0.00  0.00    +0.197 C 
BRANCH  39  40
ATOM     40  O   LIG    1        1.195  31.232  62.329  0.00  0.00    -0.346 OA
BRANCH  40  41
ATOM     41  C   LIG    1        1.341  30.619  63.606  0.00  0.00    +0.282 C 
ATOM     42  C   LIG    1        2.813  30.626  64.017  0.00  0.00    +0.201 C 
ATOM     43  C   LIG    1        3.279  32.045  64.348  0.00  0.00    +0.179 C 
ATOM     44  C   LIG    1        2.345  32.706  65.362  0.00  0.00    +0.174 C 
ATOM     45  C   LIG    1        0.891  32.604  64.884  0.00  0.00    +0.149 C 
ATOM     46  C   LIG    1       -0.094  33.120  65.931  0.00  0.00    +0.041 C 
ATOM     53  O   LIG    1        0.534  31.245  64.608  0.00  0.00    -0.343 OA
BRANCH  44  47
ATOM     47  O   LIG    1        2.728  34.073  65.492  0.00  0.00    -0.387 OA
ATOM     48  H   LIG    1        3.452  34.119  66.139  0.00  0.00    +0.210 HD
ENDBRANCH  44  47
BRANCH  43  49
ATOM     49  O   LIG    1        4.601  32.009  64.881  0.00  0.00    -0.386 OA
ATOM     50  H   LIG    1        4.887  32.927  65.026  0.00  0.00    +0.210 HD
ENDBRANCH  43  49
BRANCH  42  51
ATOM     51  O   LIG    1        2.948  29.788  65.166  0.00  0.00    -0.384 OA
ATOM     52  H   LIG    1        2.439  30.183  65.895  0.00  0.00    +0.210 HD
ENDBRANCH  42  51
ENDBRANCH  40  41
ENDBRANCH  39  40
ENDBRANCH  38  39
TORSDOF 16
ENDMDL
MODEL 5
REMARK VINA RESULT:      -7.2      2.044      9.569
REMARK  Name = 5280805
REMARK                            x       y       z     vdW  Elec       q    Type
REMARK                         _______ _______ _______ _____ _____    ______ ____
ROOT
ATOM      1  O   LIG    1       -0.215  30.943  64.661  0.00  0.00    -0.331 OA
ATOM      2  C   LIG    1       -1.183  29.896  64.694  0.00  0.00    +0.340 C 
ATOM      3  C   LIG    1       -0.603  28.650  65.363  0.00  0.00    +0.214 C 
ATOM      4  C   LIG    1       -0.035  28.974  66.745  0.00  0.00    +0.180 C 
ATOM      5  C   LIG    1        0.875  30.201  66.695  0.00  0.00    +0.177 C 
ATOM     38  C   LIG    1        0.187  31.359  65.968  0.00  0.00    +0.179 C 
ENDROOT
BRANCH   5   6
ATOM      6  O   LIG    1        1.195  30.604  68.024  0.00  0.00    -0.386 OA
ATOM      7  H   LIG    1        0.973  31.546  68.114  0.00  0.00    +0.210 HD
ENDBRANCH   5   6
BRANCH   4   8
ATOM      8  O   LIG    1        0.740  27.868  67.211  0.00  0.00    -0.386 OA
ATOM      9  H   LIG    1        0.510  27.099  66.662  0.00  0.00    +0.210 HD
ENDBRANCH   4   8
BRANCH   3  10
ATOM     10  O   LIG    1       -1.647  27.685  65.494  0.00  0.00    -0.383 OA
ATOM     11  H   LIG    1       -1.241  26.803  65.517  0.00  0.00    +0.210 HD
ENDBRANCH   3  10
BRANCH   2  12
ATOM     12  O   LIG    1       -1.560  29.546  63.363  0.00  0.00    -0.453 OA
BRANCH  12  13
ATOM     13  C   LIG    1       -2.737  30.157  62.992  0.00  0.00    +0.214 A 
ATOM     14  C   LIG    1       -4.006  29.614  63.534  0.00  0.00    +0.238 A 
ATOM     15  C   LIG    1       -5.238  30.308  63.130  0.00  0.00    +0.109 A 
ATOM     16  C   LIG    1       -6.485  29.872  63.586  0.00  0.00    +0.135 A 
ATOM     17  C   LIG    1       -7.639  30.551  63.189  0.00  0.00    +0.091 A 
ATOM     18  C   LIG    1       -7.546  31.657  62.344  0.00  0.00    +0.124 A 
ATOM     19  C   LIG    1       -6.299  32.090  61.892  0.00  0.00    +0.092 A 
ATOM     24  C   LIG    1       -5.145  31.413  62.287  0.00  0.00    +0.147 A 
ATOM     25  O   LIG    1       -3.949  31.885  61.811  0.00  0.00    -0.451 OA
ATOM     26  O   LIG    1       -4.026  28.642  64.277  0.00  0.00    -0.283 OA
ATOM     27  C   LIG    1       -2.785  31.228  62.177  0.00  0.00    +0.181 A 
BRANCH  27  28
ATOM     28  C   LIG    1       -1.574  31.837  61.599  0.00  0.00    +0.025 A 
ATOM     29  C   LIG    1       -0.505  31.030  61.208  0.00  0.00    +0.015 A 
ATOM     30  C   LIG    1        0.640  31.607  60.661  0.00  0.00    +0.050 A 
ATOM     31  C   LIG    1        0.719  32.991  60.504  0.00  0.00    +0.158 A 
ATOM     32  C   LIG    1       -0.349  33.798  60.894  0.00  0.00    +0.159 A 
ATOM     37  C   LIG    1       -1.496  33.221  61.441  0.00  0.00    +0.060 A 
BRANCH  32  33
ATOM     33  O   LIG    1       -0.286  35.151  60.745  0.00  0.00    -0.503 OA
ATOM     34  H   LIG    1        0.352  35.372  60.047  0.00  0.00    +0.292 HD
ENDBRANCH  32  33
BRANCH  31  35
ATOM     35  O   LIG    1        1.843  33.542  59.970  0.00  0.00    -0.503 OA
ATOM     36  H   LIG    1        2.194  32.963  59.275  0.00  0.00    +0.292 HD
ENDBRANCH  31  35
ENDBRANCH  27  28
BRANCH  18  20
ATOM     20  O   LIG    1       -8.673  32.316  61.960  0.00  0.00    -0.507 OA
ATOM     21  H   LIG    1       -9.228  32.475  62.743  0.00  0.00    +0.292 HD
ENDBRANCH  18  20
BRANCH  16  22
ATOM     22  O   LIG    1       -6.632  28.799  64.412  0.00  0.00    -0.506 OA
ATOM     23  H   LIG    1       -7.452  28.896  64.927  0.00  0.00    +0.292 HD
ENDBRANCH  16  22
ENDBRANCH  12  13
ENDBRANCH   2  12
BRANCH  38  39
ATOM     39  C   LIG    1        1.117  32.556  65.803  0.00  0.00    +0.197 C 
BRANCH  39  40
ATOM     40  O   LIG    1        2.410  32.205  66.276  0.00  0.00    -0.346 OA
BRANCH  40  41
ATOM     41  C   LIG    1        3.334  32.055  65.203  0.00  0.00    +0.282 C 
ATOM     42  C   LIG    1        3.951  33.410  64.860  0.00  0.00    +0.201 C 
ATOM     43  C   LIG    1        4.901  33.872  65.967  0.00  0.00    +0.179 C 
ATOM     44  C   LIG    1        5.925  32.786  66.298  0.00  0.00    +0.174 C 
ATOM     45  C   LIG    1        5.212  31.456  66.578  0.00  0.00    +0.149 C 
ATOM     46  C   LIG    1        6.199  30.307  66.770  0.00  0.00    +0.041 C 
ATOM     53  O   LIG    1        4.354  31.094  65.491  0.00  0.00    -0.343 OA
BRANCH  44  47
ATOM     47  O   LIG    1        6.660  33.203  67.446  0.00  0.00    -0.387 OA
ATOM     48  H   LIG    1        6.632  32.481  68.097  0.00  0.00    +0.210 HD
ENDBRANCH  44  47
BRANCH  43  49
ATOM     49  O   LIG    1        5.586  35.054  65.557  0.00  0.00    -0.386 OA
ATOM     50  H   LIG    1        6.282  35.235  66.212  0.00  0.00    +0.210 HD
ENDBRANCH  43  49
BRANCH  42  51
ATOM     51  O   LIG    1        4.667  33.264  63.633  0.00  0.00    -0.384 OA
ATOM     52  H   LIG    1        4.031  33.312  62.899  0.00  0.00    +0.210 HD
ENDBRANCH  42  51
ENDBRANCH  40  41
ENDBRANCH  39  40
ENDBRANCH  38  39
TORSDOF 16
ENDMDL
MODEL 6
REMARK VINA RESULT:      -7.1      1.788      8.404
REMARK  Name = 5280805
REMARK                            x       y       z     vdW  Elec       q    Type
REMARK                         _______ _______ _______ _____ _____    ______ ____
ROOT
ATOM      1  O   LIG    1       -1.423  31.944  62.610  0.00  0.00    -0.331 OA
ATOM      2  C   LIG    1       -2.675  32.490  62.200  0.00  0.00    +0.340 C 
ATOM      3  C   LIG    1       -2.538  33.985  61.909  0.00  0.00    +0.214 C 
ATOM      4  C   LIG    1       -1.418  34.256  60.905  0.00  0.00    +0.180 C 
ATOM      5  C   LIG    1       -0.135  33.522  61.296  0.00  0.00    +0.177 C 
ATOM     38  C   LIG    1       -0.422  32.048  61.596  0.00  0.00    +0.179 C 
ENDROOT
BRANCH   5   6
ATOM      6  O   LIG    1        0.803  33.610  60.226  0.00  0.00    -0.386 OA
ATOM      7  H   LIG    1        0.824  34.533  59.921  0.00  0.00    +0.210 HD
ENDBRANCH   5   6
BRANCH   4   8
ATOM      8  O   LIG    1       -1.134  35.656  60.876  0.00  0.00    -0.386 OA
ATOM      9  H   LIG    1       -1.234  35.954  59.956  0.00  0.00    +0.210 HD
ENDBRANCH   4   8
BRANCH   3  10
ATOM     10  O   LIG    1       -3.777  34.452  61.375  0.00  0.00    -0.383 OA
ATOM     11  H   LIG    1       -4.317  33.678  61.144  0.00  0.00    +0.210 HD
ENDBRANCH   3  10
BRANCH   2  12
ATOM     12  O   LIG    1       -3.634  32.331  63.244  0.00  0.00    -0.453 OA
BRANCH  12  13
ATOM     13  C   LIG    1       -4.560  31.358  62.938  0.00  0.00    +0.214 A 
ATOM     14  C   LIG    1       -5.795  31.770  62.228  0.00  0.00    +0.238 A 
ATOM     15  C   LIG    1       -6.748  30.698  61.901  0.00  0.00    +0.109 A 
ATOM     16  C   LIG    1       -7.943  30.983  61.234  0.00  0.00    +0.135 A 
ATOM     17  C   LIG    1       -8.827  29.946  60.934  0.00  0.00    +0.091 A 
ATOM     18  C   LIG    1       -8.520  28.635  61.297  0.00  0.00    +0.124 A 
ATOM     19  C   LIG    1       -7.326  28.353  61.962  0.00  0.00    +0.092 A 
ATOM     24  C   LIG    1       -6.440  29.388  62.264  0.00  0.00    +0.147 A 
ATOM     25  O   LIG    1       -5.283  29.051  62.917  0.00  0.00    -0.451 OA
ATOM     26  O   LIG    1       -6.009  32.937  61.929  0.00  0.00    -0.283 OA
ATOM     27  C   LIG    1       -4.387  30.058  63.240  0.00  0.00    +0.181 A 
BRANCH  27  28
ATOM     28  C   LIG    1       -3.189  29.560  63.937  0.00  0.00    +0.025 A 
ATOM     29  C   LIG    1       -2.341  28.650  63.306  0.00  0.00    +0.015 A 
ATOM     30  C   LIG    1       -1.207  28.179  63.967  0.00  0.00    +0.050 A 
ATOM     31  C   LIG    1       -0.920  28.617  65.260  0.00  0.00    +0.158 A 
ATOM     32  C   LIG    1       -1.767  29.527  65.891  0.00  0.00    +0.159 A 
ATOM     37  C   LIG    1       -2.901  29.998  65.230  0.00  0.00    +0.060 A 
BRANCH  32  33
ATOM     33  O   LIG    1       -1.497  29.964  67.154  0.00  0.00    -0.503 OA
ATOM     34  H   LIG    1       -1.643  29.242  67.787  0.00  0.00    +0.292 HD
ENDBRANCH  32  33
BRANCH  31  35
ATOM     35  O   LIG    1        0.190  28.148  65.896  0.00  0.00    -0.503 OA
ATOM     36  H   LIG    1        0.686  27.565  65.300  0.00  0.00    +0.292 HD
ENDBRANCH  31  35
ENDBRANCH  27  28
BRANCH  18  20
ATOM     20  O   LIG    1       -9.386  27.627  61.002  0.00  0.00    -0.507 OA
ATOM     21  H   LIG    1       -8.877  26.840  60.742  0.00  0.00    +0.292 HD
ENDBRANCH  18  20
BRANCH  16  22
ATOM     22  O   LIG    1       -8.291  32.245  60.856  0.00  0.00    -0.506 OA
ATOM     23  H   LIG    1       -9.256  32.348  60.922  0.00  0.00    +0.292 HD
ENDBRANCH  16  22
ENDBRANCH  12  13
ENDBRANCH   2  12
BRANCH  38  39
ATOM     39  C   LIG    1        0.821  31.322  62.100  0.00  0.00    +0.197 C 
BRANCH  39  40
ATOM     40  O   LIG    1        1.731  32.276  62.628  0.00  0.00    -0.346 OA
BRANCH  40  41
ATOM     41  C   LIG    1        1.460  32.552  63.998  0.00  0.00    +0.282 C 
ATOM     42  C   LIG    1        1.501  31.255  64.805  0.00  0.00    +0.201 C 
ATOM     43  C   LIG    1        2.932  30.728  64.918  0.00  0.00    +0.179 C 
ATOM     44  C   LIG    1        3.876  31.815  65.436  0.00  0.00    +0.174 C 
ATOM     45  C   LIG    1        3.726  33.089  64.594  0.00  0.00    +0.149 C 
ATOM     46  C   LIG    1        4.540  34.249  65.162  0.00  0.00    +0.041 C 
ATOM     53  O   LIG    1        2.361  33.518  64.549  0.00  0.00    -0.343 OA
BRANCH  44  47
ATOM     47  O   LIG    1        5.210  31.321  65.351  0.00  0.00    -0.387 OA
ATOM     48  H   LIG    1        5.683  31.852  64.687  0.00  0.00    +0.210 HD
ENDBRANCH  44  47
BRANCH  43  49
ATOM     49  O   LIG    1        2.970  29.612  65.805  0.00  0.00    -0.386 OA
ATOM     50  H   LIG    1        2.109  29.560  66.253  0.00  0.00    +0.210 HD
ENDBRANCH  43  49
BRANCH  42  51
ATOM     51  O   LIG    1        0.980  31.535  66.105  0.00  0.00    -0.384 OA
ATOM     52  H   LIG    1        0.810  32.490  66.168  0.00  0.00    +0.210 HD
ENDBRANCH  42  51
ENDBRANCH  40  41
ENDBRANCH  39  40
ENDBRANCH  38  39
TORSDOF 16
ENDMDL
MODEL 7
REMARK VINA RESULT:      -7.0     16.643     20.983
REMARK  Name = 5280805
REMARK                            x       y       z     vdW  Elec       q    Type
REMARK                         _______ _______ _______ _____ _____    ______ ____
ROOT
ATOM      1  O   LIG    1      -10.955  16.545  51.551  0.00  0.00    -0.331 OA
ATOM      2  C   LIG    1      -11.857  17.616  51.821  0.00  0.00    +0.340 C 
ATOM      3  C   LIG    1      -12.934  17.697  50.739  0.00  0.00    +0.214 C 
ATOM      4  C   LIG    1      -13.645  16.355  50.561  0.00  0.00    +0.180 C 
ATOM      5  C   LIG    1      -12.641  15.209  50.434  0.00  0.00    +0.177 C 
ATOM     38  C   LIG    1      -11.601  15.271  51.555  0.00  0.00    +0.179 C 
ENDROOT
BRANCH   5   6
ATOM      6  O   LIG    1      -13.334  13.966  50.502  0.00  0.00    -0.386 OA
ATOM      7  H   LIG    1      -13.258  13.629  51.410  0.00  0.00    +0.210 HD
ENDBRANCH   5   6
BRANCH   4   8
ATOM      8  O   LIG    1      -14.431  16.388  49.369  0.00  0.00    -0.386 OA
ATOM      9  H   LIG    1      -15.360  16.267  49.629  0.00  0.00    +0.210 HD
ENDBRANCH   4   8
BRANCH   3  10
ATOM     10  O   LIG    1      -13.884  18.689  51.126  0.00  0.00    -0.383 OA
ATOM     11  H   LIG    1      -14.025  19.283  50.370  0.00  0.00    +0.210 HD
ENDBRANCH   3  10
BRANCH   2  12
ATOM     12  O   LIG    1      -11.147  18.854  51.828  0.00  0.00    -0.453 OA
BRANCH  12  13
ATOM     13  C   LIG    1      -10.968  19.329  53.109  0.00  0.00    +0.214 A 
ATOM     14  C   LIG    1      -12.009  20.223  53.673  0.00  0.00    +0.238 A 
ATOM     15  C   LIG    1      -11.791  20.690  55.050  0.00  0.00    +0.109 A 
ATOM     16  C   LIG    1      -12.713  21.538  55.670  0.00  0.00    +0.135 A 
ATOM     17  C   LIG    1      -12.483  21.965  56.979  0.00  0.00    +0.091 A 
ATOM     18  C   LIG    1      -11.340  21.547  57.663  0.00  0.00    +0.124 A 
ATOM     19  C   LIG    1      -10.423  20.700  57.040  0.00  0.00    +0.092 A 
ATOM     24  C   LIG    1      -10.650  20.272  55.732  0.00  0.00    +0.147 A 
ATOM     25  O   LIG    1       -9.714  19.441  55.174  0.00  0.00    -0.451 OA
ATOM     26  O   LIG    1      -12.995  20.552  53.027  0.00  0.00    -0.283 OA
ATOM     27  C   LIG    1       -9.907  19.007  53.871  0.00  0.00    +0.181 A 
BRANCH  27  28
ATOM     28  C   LIG    1       -8.830  18.121  53.395  0.00  0.00    +0.025 A 
ATOM     29  C   LIG    1       -8.716  16.826  53.902  0.00  0.00    +0.015 A 
ATOM     30  C   LIG    1       -7.697  15.988  53.451  0.00  0.00    +0.050 A 
ATOM     31  C   LIG    1       -6.790  16.444  52.494  0.00  0.00    +0.158 A 
ATOM     32  C   LIG    1       -6.904  17.738  51.987  0.00  0.00    +0.159 A 
ATOM     37  C   LIG    1       -7.923  18.576  52.438  0.00  0.00    +0.060 A 
BRANCH  32  33
ATOM     33  O   LIG    1       -6.025  18.194  51.051  0.00  0.00    -0.503 OA
ATOM     34  H   LIG    1       -6.259  19.102  50.799  0.00  0.00    +0.292 HD
ENDBRANCH  32  33
BRANCH  31  35
ATOM     35  O   LIG    1       -5.798  15.616  52.062  0.00  0.00    -0.503 OA
ATOM     36  H   LIG    1       -4.945  16.074  52.114  0.00  0.00    +0.292 HD
ENDBRANCH  31  35
ENDBRANCH  27  28
BRANCH  18  20
ATOM     20  O   LIG    1      -11.121  21.965  58.939  0.00  0.00    -0.507 OA
ATOM     21  H   LIG    1      -11.665  22.753  59.112  0.00  0.00    +0.292 HD
ENDBRANCH  18  20
BRANCH  16  22
ATOM     22  O   LIG    1      -13.844  21.975  55.049  0.00  0.00    -0.506 OA
ATOM     23  H   LIG    1      -14.623  21.597  55.492  0.00  0.00    +0.292 HD
ENDBRANCH  16  22
ENDBRANCH  12  13
ENDBRANCH   2  12
BRANCH  38  39
ATOM     39  C   LIG    1      -10.520  14.208  51.383  0.00  0.00    +0.197 C 
BRANCH  39  40
ATOM     40  O   LIG    1      -10.304  13.989  49.996  0.00  0.00    -0.346 OA
BRANCH  40  41
ATOM     41  C   LIG    1       -9.138  14.666  49.538  0.00  0.00    +0.282 C 
ATOM     42  C   LIG    1       -8.352  13.759  48.592  0.00  0.00    +0.201 C 
ATOM     43  C   LIG    1       -9.094  13.581  47.266  0.00  0.00    +0.179 C 
ATOM     44  C   LIG    1       -9.471  14.935  46.664  0.00  0.00    +0.174 C 
ATOM     45  C   LIG    1      -10.210  15.788  47.703  0.00  0.00    +0.149 C 
ATOM     46  C   LIG    1      -10.478  17.203  47.196  0.00  0.00    +0.041 C 
ATOM     53  O   LIG    1       -9.444  15.913  48.906  0.00  0.00    -0.343 OA
BRANCH  44  47
ATOM     47  O   LIG    1      -10.306  14.701  45.533  0.00  0.00    -0.387 OA
ATOM     48  H   LIG    1       -9.737  14.428  44.793  0.00  0.00    +0.210 HD
ENDBRANCH  44  47
BRANCH  43  49
ATOM     49  O   LIG    1       -8.274  12.868  46.343  0.00  0.00    -0.386 OA
ATOM     50  H   LIG    1       -8.132  11.976  46.701  0.00  0.00    +0.210 HD
ENDBRANCH  43  49
BRANCH  42  51
ATOM     51  O   LIG    1       -7.081  14.369  48.361  0.00  0.00    -0.384 OA
ATOM     52  H   LIG    1       -6.457  13.678  48.079  0.00  0.00    +0.210 HD
ENDBRANCH  42  51
ENDBRANCH  40  41
ENDBRANCH  39  40
ENDBRANCH  38  39
TORSDOF 16
ENDMDL
MODEL 8
REMARK VINA RESULT:      -7.0      5.600      9.438
REMARK  Name = 5280805
REMARK                            x       y       z     vdW  Elec       q    Type
REMARK                         _______ _______ _______ _____ _____    ______ ____
ROOT
ATOM      1  O   LIG    1        0.802  34.365  67.975  0.00  0.00    -0.331 OA
ATOM      2  C   LIG    1        0.069  33.268  67.435  0.00  0.00    +0.340 C 
ATOM      3  C   LIG    1       -0.814  32.632  68.509  0.00  0.00    +0.214 C 
ATOM      4  C   LIG    1       -1.712  33.672  69.177  0.00  0.00    +0.180 C 
ATOM      5  C   LIG    1       -0.913  34.905  69.600  0.00  0.00    +0.177 C 
ATOM     38  C   LIG    1       -0.048  35.414  68.444  0.00  0.00    +0.179 C 
ENDROOT
BRANCH   5   6
ATOM      6  O   LIG    1       -1.813  35.934  70.002  0.00  0.00    -0.386 OA
ATOM      7  H   LIG    1       -2.639  35.514  70.296  0.00  0.00    +0.210 HD
ENDBRANCH   5   6
BRANCH   4   8
ATOM      8  O   LIG    1       -2.304  33.107  70.349  0.00  0.00    -0.386 OA
ATOM      9  H   LIG    1       -1.980  33.615  71.112  0.00  0.00    +0.210 HD
ENDBRANCH   4   8
BRANCH   3  10
ATOM     10  O   LIG    1       -1.624  31.633  67.889  0.00  0.00    -0.383 OA
ATOM     11  H   LIG    1       -1.036  31.015  67.424  0.00  0.00    +0.210 HD
ENDBRANCH   3  10
BRANCH   2  12
ATOM     12  O   LIG    1        0.973  32.271  66.961  0.00  0.00    -0.453 OA
BRANCH  12  13
ATOM     13  C   LIG    1        1.253  32.434  65.622  0.00  0.00    +0.214 A 
ATOM     14  C   LIG    1        0.120  32.406  64.665  0.00  0.00    +0.238 A 
ATOM     15  C   LIG    1        0.459  32.606  63.248  0.00  0.00    +0.109 A 
ATOM     16  C   LIG    1       -0.537  32.594  62.267  0.00  0.00    +0.135 A 
ATOM     17  C   LIG    1       -0.188  32.788  60.930  0.00  0.00    +0.091 A 
ATOM     18  C   LIG    1        1.145  32.992  60.576  0.00  0.00    +0.124 A 
ATOM     19  C   LIG    1        2.137  33.004  61.557  0.00  0.00    +0.092 A 
ATOM     24  C   LIG    1        1.791  32.810  62.895  0.00  0.00    +0.147 A 
ATOM     25  O   LIG    1        2.808  32.832  63.814  0.00  0.00    -0.451 OA
ATOM     26  O   LIG    1       -1.032  32.228  65.035  0.00  0.00    -0.283 OA
ATOM     27  C   LIG    1        2.498  32.632  65.150  0.00  0.00    +0.181 A 
BRANCH  27  28
ATOM     28  C   LIG    1        3.679  32.681  66.028  0.00  0.00    +0.025 A 
ATOM     29  C   LIG    1        3.803  33.697  66.976  0.00  0.00    +0.015 A 
ATOM     30  C   LIG    1        4.922  33.744  67.807  0.00  0.00    +0.050 A 
ATOM     31  C   LIG    1        5.917  32.774  67.692  0.00  0.00    +0.158 A 
ATOM     32  C   LIG    1        5.794  31.757  66.745  0.00  0.00    +0.159 A 
ATOM     37  C   LIG    1        4.675  31.711  65.914  0.00  0.00    +0.060 A 
BRANCH  32  33
ATOM     33  O   LIG    1        6.759  30.803  66.624  0.00  0.00    -0.503 OA
ATOM     34  H   LIG    1        6.347  29.942  66.446  0.00  0.00    +0.292 HD
ENDBRANCH  32  33
BRANCH  31  35
ATOM     35  O   LIG    1        7.006  32.830  68.508  0.00  0.00    -0.503 OA
ATOM     36  H   LIG    1        7.350  31.935  68.658  0.00  0.00    +0.292 HD
ENDBRANCH  31  35
ENDBRANCH  27  28
BRANCH  18  20
ATOM     20  O   LIG    1        1.481  33.182  59.270  0.00  0.00    -0.507 OA
ATOM     21  H   LIG    1        1.650  32.317  58.859  0.00  0.00    +0.292 HD
ENDBRANCH  18  20
BRANCH  16  22
ATOM     22  O   LIG    1       -1.854  32.400  62.559  0.00  0.00    -0.506 OA
ATOM     23  H   LIG    1       -2.336  33.238  62.454  0.00  0.00    +0.292 HD
ENDBRANCH  16  22
ENDBRANCH  12  13
ENDBRANCH   2  12
BRANCH  38  39
ATOM     39  C   LIG    1        0.847  36.572  68.875  0.00  0.00    +0.197 C 
BRANCH  39  40
ATOM     40  O   LIG    1        0.099  37.779  68.817  0.00  0.00    -0.346 OA
BRANCH  40  41
ATOM     41  C   LIG    1        0.869  38.890  69.265  0.00  0.00    +0.282 C 
ATOM     42  C   LIG    1        2.026  39.140  68.299  0.00  0.00    +0.201 C 
ATOM     43  C   LIG    1        1.514  39.691  66.967  0.00  0.00    +0.179 C 
ATOM     44  C   LIG    1        0.611  40.905  67.187  0.00  0.00    +0.174 C 
ATOM     45  C   LIG    1       -0.486  40.569  68.206  0.00  0.00    +0.149 C 
ATOM     46  C   LIG    1       -1.323  41.793  68.569  0.00  0.00    +0.041 C 
ATOM     53  O   LIG    1        0.078  40.072  69.425  0.00  0.00    -0.343 OA
BRANCH  44  47
ATOM     47  O   LIG    1        0.030  41.259  65.934  0.00  0.00    -0.387 OA
ATOM     48  H   LIG    1        0.107  42.222  65.832  0.00  0.00    +0.210 HD
ENDBRANCH  44  47
BRANCH  43  49
ATOM     49  O   LIG    1        2.615  40.067  66.142  0.00  0.00    -0.386 OA
ATOM     50  H   LIG    1        2.670  41.038  66.147  0.00  0.00    +0.210 HD
ENDBRANCH  43  49
BRANCH  42  51
ATOM     51  O   LIG    1        2.907  40.083  68.911  0.00  0.00    -0.384 OA
ATOM     52  H   LIG    1        3.380  39.637  69.634  0.00  0.00    +0.210 HD
ENDBRANCH  42  51
ENDBRANCH  40  41
ENDBRANCH  39  40
ENDBRANCH  38  39
TORSDOF 16
ENDMDL
MODEL 9
REMARK VINA RESULT:      -6.8      3.593     10.690
REMARK  Name = 5280805
REMARK                            x       y       z     vdW  Elec       q    Type
REMARK                         _______ _______ _______ _____ _____    ______ ____
ROOT
ATOM      1  O   LIG    1        3.409  30.709  66.967  0.00  0.00    -0.331 OA
ATOM      2  C   LIG    1        3.117  31.773  66.063  0.00  0.00    +0.340 C 
ATOM      3  C   LIG    1        4.110  32.921  66.247  0.00  0.00    +0.214 C 
ATOM      4  C   LIG    1        5.553  32.430  66.136  0.00  0.00    +0.180 C 
ATOM      5  C   LIG    1        5.784  31.190  66.999  0.00  0.00    +0.177 C 
ATOM     38  C   LIG    1        4.700  30.140  66.743  0.00  0.00    +0.179 C 
ENDROOT
BRANCH   5   6
ATOM      6  O   LIG    1        7.060  30.633  66.692  0.00  0.00    -0.386 OA
ATOM      7  H   LIG    1        7.686  30.917  67.380  0.00  0.00    +0.210 HD
ENDBRANCH   5   6
BRANCH   4   8
ATOM      8  O   LIG    1        6.440  33.455  66.589  0.00  0.00    -0.386 OA
ATOM      9  H   LIG    1        6.991  33.072  67.293  0.00  0.00    +0.210 HD
ENDBRANCH   4   8
BRANCH   3  10
ATOM     10  O   LIG    1        3.861  33.895  65.234  0.00  0.00    -0.383 OA
ATOM     11  H   LIG    1        3.469  34.677  65.658  0.00  0.00    +0.210 HD
ENDBRANCH   3  10
BRANCH   2  12
ATOM     12  O   LIG    1        1.807  32.278  66.322  0.00  0.00    -0.453 OA
BRANCH  12  13
ATOM     13  C   LIG    1        0.903  31.853  65.374  0.00  0.00    +0.214 A 
ATOM     14  C   LIG    1        0.844  32.588  64.087  0.00  0.00    +0.238 A 
ATOM     15  C   LIG    1       -0.119  32.089  63.094  0.00  0.00    +0.109 A 
ATOM     16  C   LIG    1       -0.252  32.715  61.851  0.00  0.00    +0.135 A 
ATOM     17  C   LIG    1       -1.172  32.218  60.926  0.00  0.00    +0.091 A 
ATOM     18  C   LIG    1       -1.953  31.106  61.241  0.00  0.00    +0.124 A 
ATOM     19  C   LIG    1       -1.817  30.484  62.482  0.00  0.00    +0.092 A 
ATOM     24  C   LIG    1       -0.898  30.978  63.409  0.00  0.00    +0.147 A 
ATOM     25  O   LIG    1       -0.809  30.325  64.611  0.00  0.00    -0.451 OA
ATOM     26  O   LIG    1        1.559  33.556  63.864  0.00  0.00    -0.283 OA
ATOM     27  C   LIG    1        0.088  30.798  65.556  0.00  0.00    +0.181 A 
BRANCH  27  28
ATOM     28  C   LIG    1        0.084  30.007  66.799  0.00  0.00    +0.025 A 
ATOM     29  C   LIG    1       -0.602  30.472  67.921  0.00  0.00    +0.015 A 
ATOM     30  C   LIG    1       -0.605  29.723  69.097  0.00  0.00    +0.050 A 
ATOM     31  C   LIG    1        0.078  28.508  69.153  0.00  0.00    +0.158 A 
ATOM     32  C   LIG    1        0.763  28.042  68.032  0.00  0.00    +0.159 A 
ATOM     37  C   LIG    1        0.767  28.791  66.855  0.00  0.00    +0.060 A 
BRANCH  32  33
ATOM     33  O   LIG    1        1.433  26.856  68.073  0.00  0.00    -0.503 OA
ATOM     34  H   LIG    1        1.531  26.569  68.996  0.00  0.00    +0.292 HD
ENDBRANCH  32  33
BRANCH  31  35
ATOM     35  O   LIG    1        0.068  27.786  70.308  0.00  0.00    -0.503 OA
ATOM     36  H   LIG    1        0.739  27.087  70.262  0.00  0.00    +0.292 HD
ENDBRANCH  31  35
ENDBRANCH  27  28
BRANCH  18  20
ATOM     20  O   LIG    1       -2.849  30.626  60.336  0.00  0.00    -0.507 OA
ATOM     21  H   LIG    1       -3.137  31.354  59.760  0.00  0.00    +0.292 HD
ENDBRANCH  18  20
BRANCH  16  22
ATOM     22  O   LIG    1        0.486  33.802  61.493  0.00  0.00    -0.506 OA
ATOM     23  H   LIG    1       -0.008  34.328  60.839  0.00  0.00    +0.292 HD
ENDBRANCH  16  22
ENDBRANCH  12  13
ENDBRANCH   2  12
BRANCH  38  39
ATOM     39  C   LIG    1        4.842  28.941  67.676  0.00  0.00    +0.197 C 
BRANCH  39  40
ATOM     40  O   LIG    1        5.793  29.251  68.685  0.00  0.00    -0.346 OA
BRANCH  40  41
ATOM     41  C   LIG    1        6.092  28.113  69.486  0.00  0.00    +0.282 C 
ATOM     42  C   LIG    1        7.503  27.617  69.172  0.00  0.00    +0.201 C 
ATOM     43  C   LIG    1        8.554  28.596  69.699  0.00  0.00    +0.179 C 
ATOM     44  C   LIG    1        8.317  28.911  71.176  0.00  0.00    +0.174 C 
ATOM     45  C   LIG    1        6.864  29.352  71.395  0.00  0.00    +0.149 C 
ATOM     46  C   LIG    1        6.539  29.538  72.875  0.00  0.00    +0.041 C 
ATOM     53  O   LIG    1        5.948  28.377  70.885  0.00  0.00    -0.343 OA
BRANCH  44  47
ATOM     47  O   LIG    1        9.212  29.954  71.555  0.00  0.00    -0.387 OA
ATOM     48  H   LIG    1        9.653  29.684  72.379  0.00  0.00    +0.210 HD
ENDBRANCH  44  47
BRANCH  43  49
ATOM     49  O   LIG    1        9.858  28.039  69.540  0.00  0.00    -0.386 OA
ATOM     50  H   LIG    1       10.017  27.923  68.588  0.00  0.00    +0.210 HD
ENDBRANCH  43  49
BRANCH  42  51
ATOM     51  O   LIG    1        7.666  26.344  69.799  0.00  0.00    -0.384 OA
ATOM     52  H   LIG    1        7.229  25.672  69.247  0.00  0.00    +0.210 HD
ENDBRANCH  42  51
ENDBRANCH  40  41
ENDBRANCH  39  40
ENDBRANCH  38  39
TORSDOF 16
ENDMDL
