MODEL 1
REMARK VINA RESULT:      -7.4      0.000      0.000
REMARK  Name = 5280343
REMARK                            x       y       z     vdW  Elec       q    Type
REMARK                         _______ _______ _______ _____ _____    ______ ____
ROOT
ATOM      1  O   LIG    1       10.261  15.347  41.735  0.00  0.00    -0.451 OA
ATOM      2  C   LIG    1        9.688  16.231  42.637  0.00  0.00    +0.181 A 
ATOM      3  C   LIG    1       10.282  17.351  43.088  0.00  0.00    +0.208 A 
ATOM      4  C   LIG    1       11.635  17.694  42.589  0.00  0.00    +0.238 A 
ATOM      5  C   LIG    1       12.231  16.759  41.622  0.00  0.00    +0.109 A 
ATOM      6  C   LIG    1       13.501  16.995  41.089  0.00  0.00    +0.135 A 
ATOM      7  C   LIG    1       14.043  16.090  40.176  0.00  0.00    +0.091 A 
ATOM      8  C   LIG    1       13.321  14.958  39.796  0.00  0.00    +0.124 A 
ATOM      9  C   LIG    1       12.054  14.726  40.331  0.00  0.00    +0.092 A 
ATOM     14  O   LIG    1       12.225  18.700  42.962  0.00  0.00    -0.283 OA
ATOM     27  C   LIG    1       11.508  15.629  41.244  0.00  0.00    +0.147 A 
ENDROOT
BRANCH   2  17
ATOM     17  C   LIG    1        8.349  15.810  43.084  0.00  0.00    +0.025 A 
ATOM     18  C   LIG    1        7.384  15.445  42.145  0.00  0.00    +0.015 A 
ATOM     19  C   LIG    1        6.115  15.046  42.568  0.00  0.00    +0.050 A 
ATOM     20  C   LIG    1        5.812  15.013  43.929  0.00  0.00    +0.158 A 
ATOM     21  C   LIG    1        6.777  15.379  44.868  0.00  0.00    +0.159 A 
ATOM     26  C   LIG    1        8.046  15.777  44.445  0.00  0.00    +0.060 A 
BRANCH  21  22
ATOM     22  O   LIG    1        6.493  15.349  46.199  0.00  0.00    -0.503 OA
ATOM     23  H   LIG    1        6.536  16.248  46.564  0.00  0.00    +0.292 HD
ENDBRANCH  21  22
BRANCH  20  24
ATOM     24  O   LIG    1        4.569  14.625  44.329  0.00  0.00    -0.503 OA
ATOM     25  H   LIG    1        3.923  14.824  43.633  0.00  0.00    +0.292 HD
ENDBRANCH  20  24
ENDBRANCH   2  17
BRANCH   8  10
ATOM     10  O   LIG    1       13.854  14.078  38.905  0.00  0.00    -0.507 OA
ATOM     11  H   LIG    1       13.321  13.263  38.909  0.00  0.00    +0.292 HD
ENDBRANCH   8  10
BRANCH   6  12
ATOM     12  O   LIG    1       14.249  18.083  41.426  0.00  0.00    -0.506 OA
ATOM     13  H   LIG    1       15.145  18.005  41.064  0.00  0.00    +0.292 HD
ENDBRANCH   6  12
BRANCH   3  15
ATOM     15  O   LIG    1        9.699  18.192  44.010  0.00  0.00    -0.501 OA
ATOM     16  H   LIG    1        9.966  19.109  43.836  0.00  0.00    +0.292 HD
ENDBRANCH   3  15
TORSDOF 6
ENDMDL
MODEL 2
REMARK VINA RESULT:      -7.0     25.983     28.237
REMARK  Name = 5280343
REMARK                            x       y       z     vdW  Elec       q    Type
REMARK                         _______ _______ _______ _____ _____    ______ ____
ROOT
ATOM      1  O   LIG    1        2.159  32.102  64.015  0.00  0.00    -0.451 OA
ATOM      2  C   LIG    1        1.497  30.886  64.086  0.00  0.00    +0.181 A 
ATOM      3  C   LIG    1        1.812  29.894  64.939  0.00  0.00    +0.208 A 
ATOM      4  C   LIG    1        2.930  30.098  65.891  0.00  0.00    +0.238 A 
ATOM      5  C   LIG    1        3.620  31.395  65.820  0.00  0.00    +0.109 A 
ATOM      6  C   LIG    1        4.684  31.687  66.676  0.00  0.00    +0.135 A 
ATOM      7  C   LIG    1        5.322  32.924  66.586  0.00  0.00    +0.091 A 
ATOM      8  C   LIG    1        4.899  33.865  65.646  0.00  0.00    +0.124 A 
ATOM      9  C   LIG    1        3.836  33.570  64.792  0.00  0.00    +0.092 A 
ATOM     14  O   LIG    1        3.262  29.233  66.692  0.00  0.00    -0.283 OA
ATOM     27  C   LIG    1        3.196  32.334  64.881  0.00  0.00    +0.147 A 
ENDROOT
BRANCH   2  17
ATOM     17  C   LIG    1        0.406  30.767  63.102  0.00  0.00    +0.025 A 
ATOM     18  C   LIG    1        0.579  29.983  61.961  0.00  0.00    +0.015 A 
ATOM     19  C   LIG    1       -0.453  29.871  61.030  0.00  0.00    +0.050 A 
ATOM     20  C   LIG    1       -1.658  30.541  61.239  0.00  0.00    +0.158 A 
ATOM     21  C   LIG    1       -1.831  31.325  62.380  0.00  0.00    +0.159 A 
ATOM     26  C   LIG    1       -0.799  31.437  63.312  0.00  0.00    +0.060 A 
BRANCH  21  22
ATOM     22  O   LIG    1       -3.004  31.983  62.596  0.00  0.00    -0.503 OA
ATOM     23  H   LIG    1       -3.271  32.452  61.788  0.00  0.00    +0.292 HD
ENDBRANCH  21  22
BRANCH  20  24
ATOM     24  O   LIG    1       -2.658  30.425  60.321  0.00  0.00    -0.503 OA
ATOM     25  H   LIG    1       -2.938  29.499  60.256  0.00  0.00    +0.292 HD
ENDBRANCH  20  24
ENDBRANCH   2  17
BRANCH   8  10
ATOM     10  O   LIG    1        5.524  35.071  65.561  0.00  0.00    -0.507 OA
ATOM     11  H   LIG    1        6.071  35.087  64.756  0.00  0.00    +0.292 HD
ENDBRANCH   8  10
BRANCH   6  12
ATOM     12  O   LIG    1        5.138  30.805  67.611  0.00  0.00    -0.506 OA
ATOM     13  H   LIG    1        5.426  29.981  67.190  0.00  0.00    +0.292 HD
ENDBRANCH   6  12
BRANCH   3  15
ATOM     15  O   LIG    1        1.154  28.683  64.962  0.00  0.00    -0.501 OA
ATOM     16  H   LIG    1        1.433  28.142  64.206  0.00  0.00    +0.292 HD
ENDBRANCH   3  15
TORSDOF 6
ENDMDL
MODEL 3
REMARK VINA RESULT:      -7.0      2.037      2.693
REMARK  Name = 5280343
REMARK                            x       y       z     vdW  Elec       q    Type
REMARK                         _______ _______ _______ _____ _____    ______ ____
ROOT
ATOM      1  O   LIG    1       11.082  15.620  41.759  0.00  0.00    -0.451 OA
ATOM      2  C   LIG    1        9.906  16.095  41.198  0.00  0.00    +0.181 A 
ATOM      3  C   LIG    1        9.838  16.804  40.056  0.00  0.00    +0.208 A 
ATOM      4  C   LIG    1       11.091  17.095  39.319  0.00  0.00    +0.238 A 
ATOM      5  C   LIG    1       12.333  16.578  39.913  0.00  0.00    +0.109 A 
ATOM      6  C   LIG    1       13.566  16.796  39.294  0.00  0.00    +0.135 A 
ATOM      7  C   LIG    1       14.729  16.295  39.880  0.00  0.00    +0.091 A 
ATOM      8  C   LIG    1       14.660  15.580  41.077  0.00  0.00    +0.124 A 
ATOM      9  C   LIG    1       13.427  15.364  41.692  0.00  0.00    +0.092 A 
ATOM     14  O   LIG    1       11.092  17.734  38.275  0.00  0.00    -0.283 OA
ATOM     27  C   LIG    1       12.262  15.863  41.108  0.00  0.00    +0.147 A 
ENDROOT
BRANCH   2  17
ATOM     17  C   LIG    1        8.713  15.764  41.997  0.00  0.00    +0.025 A 
ATOM     18  C   LIG    1        8.497  16.398  43.221  0.00  0.00    +0.015 A 
ATOM     19  C   LIG    1        7.368  16.086  43.978  0.00  0.00    +0.050 A 
ATOM     20  C   LIG    1        6.455  15.140  43.512  0.00  0.00    +0.158 A 
ATOM     21  C   LIG    1        6.671  14.506  42.288  0.00  0.00    +0.159 A 
ATOM     26  C   LIG    1        7.800  14.819  41.530  0.00  0.00    +0.060 A 
BRANCH  21  22
ATOM     22  O   LIG    1        5.785  13.582  41.822  0.00  0.00    -0.503 OA
ATOM     23  H   LIG    1        4.880  13.855  42.043  0.00  0.00    +0.292 HD
ENDBRANCH  21  22
BRANCH  20  24
ATOM     24  O   LIG    1        5.357  14.842  44.261  0.00  0.00    -0.503 OA
ATOM     25  H   LIG    1        4.555  14.957  43.728  0.00  0.00    +0.292 HD
ENDBRANCH  20  24
ENDBRANCH   2  17
BRANCH   8  10
ATOM     10  O   LIG    1       15.797  15.093  41.645  0.00  0.00    -0.507 OA
ATOM     11  H   LIG    1       15.736  15.197  42.610  0.00  0.00    +0.292 HD
ENDBRANCH   8  10
BRANCH   6  12
ATOM     12  O   LIG    1       13.690  17.488  38.126  0.00  0.00    -0.506 OA
ATOM     13  H   LIG    1       14.619  17.704  37.956  0.00  0.00    +0.292 HD
ENDBRANCH   6  12
BRANCH   3  15
ATOM     15  O   LIG    1        8.655  17.289  39.542  0.00  0.00    -0.501 OA
ATOM     16  H   LIG    1        8.516  16.939  38.647  0.00  0.00    +0.292 HD
ENDBRANCH   3  15
TORSDOF 6
ENDMDL
MODEL 4
REMARK VINA RESULT:      -6.9      1.513      7.230
REMARK  Name = 5280343
REMARK                            x       y       z     vdW  Elec       q    Type
REMARK                         _______ _______ _______ _____ _____    ______ ____
ROOT
ATOM      1  O   LIG    1        8.718  15.643  43.352  0.00  0.00    -0.451 OA
ATOM      2  C   LIG    1        9.024  15.547  42.003  0.00  0.00    +0.181 A 
ATOM      3  C   LIG    1        8.146  15.195  41.045  0.00  0.00    +0.208 A 
ATOM      4  C   LIG    1        6.745  14.902  41.432  0.00  0.00    +0.238 A 
ATOM      5  C   LIG    1        6.424  15.020  42.862  0.00  0.00    +0.109 A 
ATOM      6  C   LIG    1        5.131  14.769  43.328  0.00  0.00    +0.135 A 
ATOM      7  C   LIG    1        4.855  14.887  44.690  0.00  0.00    +0.091 A 
ATOM      8  C   LIG    1        5.864  15.253  45.582  0.00  0.00    +0.124 A 
ATOM      9  C   LIG    1        7.154  15.503  45.114  0.00  0.00    +0.092 A 
ATOM     14  O   LIG    1        5.901  14.579  40.605  0.00  0.00    -0.283 OA
ATOM     27  C   LIG    1        7.433  15.387  43.751  0.00  0.00    +0.147 A 
ENDROOT
BRANCH   2  17
ATOM     17  C   LIG    1       10.436  15.848  41.710  0.00  0.00    +0.025 A 
ATOM     18  C   LIG    1       11.219  14.919  41.023  0.00  0.00    +0.015 A 
ATOM     19  C   LIG    1       12.556  15.204  40.746  0.00  0.00    +0.050 A 
ATOM     20  C   LIG    1       13.111  16.417  41.155  0.00  0.00    +0.158 A 
ATOM     21  C   LIG    1       12.328  17.345  41.843  0.00  0.00    +0.159 A 
ATOM     26  C   LIG    1       10.990  17.061  42.119  0.00  0.00    +0.060 A 
BRANCH  21  22
ATOM     22  O   LIG    1       12.858  18.533  42.245  0.00  0.00    -0.503 OA
ATOM     23  H   LIG    1       13.251  18.992  41.485  0.00  0.00    +0.292 HD
ENDBRANCH  21  22
BRANCH  20  24
ATOM     24  O   LIG    1       14.418  16.682  40.881  0.00  0.00    -0.503 OA
ATOM     25  H   LIG    1       14.741  16.070  40.201  0.00  0.00    +0.292 HD
ENDBRANCH  20  24
ENDBRANCH   2  17
BRANCH   8  10
ATOM     10  O   LIG    1        5.590  15.366  46.911  0.00  0.00    -0.507 OA
ATOM     11  H   LIG    1        6.044  16.153  47.260  0.00  0.00    +0.292 HD
ENDBRANCH   8  10
BRANCH   6  12
ATOM     12  O   LIG    1        4.110  14.408  42.501  0.00  0.00    -0.506 OA
ATOM     13  H   LIG    1        3.837  13.495  42.677  0.00  0.00    +0.292 HD
ENDBRANCH   6  12
BRANCH   3  15
ATOM     15  O   LIG    1        8.490  15.076  39.716  0.00  0.00    -0.501 OA
ATOM     16  H   LIG    1        8.947  15.880  39.420  0.00  0.00    +0.292 HD
ENDBRANCH   3  15
TORSDOF 6
ENDMDL
MODEL 5
REMARK VINA RESULT:      -6.9     26.386     28.270
REMARK  Name = 5280343
REMARK                            x       y       z     vdW  Elec       q    Type
REMARK                         _______ _______ _______ _____ _____    ______ ____
ROOT
ATOM      1  O   LIG    1        1.793  30.628  64.534  0.00  0.00    -0.451 OA
ATOM      2  C   LIG    1        2.791  31.588  64.477  0.00  0.00    +0.181 A 
ATOM      3  C   LIG    1        2.962  32.451  63.458  0.00  0.00    +0.208 A 
ATOM      4  C   LIG    1        2.020  32.403  62.314  0.00  0.00    +0.238 A 
ATOM      5  C   LIG    1        0.956  31.391  62.388  0.00  0.00    +0.109 A 
ATOM      6  C   LIG    1        0.015  31.268  61.362  0.00  0.00    +0.135 A 
ATOM      7  C   LIG    1       -0.983  30.298  61.456  0.00  0.00    +0.091 A 
ATOM      8  C   LIG    1       -1.043  29.458  62.569  0.00  0.00    +0.124 A 
ATOM      9  C   LIG    1       -0.102  29.584  63.591  0.00  0.00    +0.092 A 
ATOM     14  O   LIG    1        2.124  33.163  61.360  0.00  0.00    -0.283 OA
ATOM     27  C   LIG    1        0.897  30.553  63.500  0.00  0.00    +0.147 A 
ENDROOT
BRANCH   2  17
ATOM     17  C   LIG    1        3.683  31.561  65.649  0.00  0.00    +0.025 A 
ATOM     18  C   LIG    1        3.250  32.089  66.867  0.00  0.00    +0.015 A 
ATOM     19  C   LIG    1        4.095  32.064  67.977  0.00  0.00    +0.050 A 
ATOM     20  C   LIG    1        5.371  31.512  67.871  0.00  0.00    +0.158 A 
ATOM     21  C   LIG    1        5.804  30.985  66.653  0.00  0.00    +0.159 A 
ATOM     26  C   LIG    1        4.959  31.009  65.543  0.00  0.00    +0.060 A 
BRANCH  21  22
ATOM     22  O   LIG    1        7.048  30.442  66.538  0.00  0.00    -0.503 OA
ATOM     23  H   LIG    1        6.999  29.614  66.034  0.00  0.00    +0.292 HD
ENDBRANCH  21  22
BRANCH  20  24
ATOM     24  O   LIG    1        6.187  31.495  68.961  0.00  0.00    -0.503 OA
ATOM     25  H   LIG    1        6.299  32.397  69.301  0.00  0.00    +0.292 HD
ENDBRANCH  20  24
ENDBRANCH   2  17
BRANCH   8  10
ATOM     10  O   LIG    1       -2.019  28.513  62.657  0.00  0.00    -0.507 OA
ATOM     11  H   LIG    1       -1.956  28.074  63.523  0.00  0.00    +0.292 HD
ENDBRANCH   8  10
BRANCH   6  12
ATOM     12  O   LIG    1        0.028  32.061  60.254  0.00  0.00    -0.506 OA
ATOM     13  H   LIG    1       -0.311  31.578  59.485  0.00  0.00    +0.292 HD
ENDBRANCH   6  12
BRANCH   3  15
ATOM     15  O   LIG    1        3.986  33.373  63.417  0.00  0.00    -0.501 OA
ATOM     16  H   LIG    1        4.723  33.024  62.889  0.00  0.00    +0.292 HD
ENDBRANCH   3  15
TORSDOF 6
ENDMDL
MODEL 6
REMARK VINA RESULT:      -6.9     19.460     24.387
REMARK  Name = 5280343
REMARK                            x       y       z     vdW  Elec       q    Type
REMARK                         _______ _______ _______ _____ _____    ______ ____
ROOT
ATOM      1  O   LIG    1       -9.693  19.365  55.074  0.00  0.00    -0.451 OA
ATOM      2  C   LIG    1       -9.872  18.962  53.760  0.00  0.00    +0.181 A 
ATOM      3  C   LIG    1      -10.919  19.313  52.991  0.00  0.00    +0.208 A 
ATOM      4  C   LIG    1      -11.958  20.205  53.560  0.00  0.00    +0.238 A 
ATOM      5  C   LIG    1      -11.755  20.639  54.950  0.00  0.00    +0.109 A 
ATOM      6  C   LIG    1      -12.675  21.484  55.577  0.00  0.00    +0.135 A 
ATOM      7  C   LIG    1      -12.458  21.879  56.897  0.00  0.00    +0.091 A 
ATOM      8  C   LIG    1      -11.330  21.434  57.587  0.00  0.00    +0.124 A 
ATOM      9  C   LIG    1      -10.414  20.591  56.958  0.00  0.00    +0.092 A 
ATOM     14  O   LIG    1      -12.932  20.560  52.908  0.00  0.00    -0.283 OA
ATOM     27  C   LIG    1      -10.627  20.195  55.637  0.00  0.00    +0.147 A 
ENDROOT
BRANCH   2  17
ATOM     17  C   LIG    1       -8.799  18.075  53.279  0.00  0.00    +0.025 A 
ATOM     18  C   LIG    1       -8.730  16.756  53.729  0.00  0.00    +0.015 A 
ATOM     19  C   LIG    1       -7.713  15.916  53.274  0.00  0.00    +0.050 A 
ATOM     20  C   LIG    1       -6.766  16.394  52.369  0.00  0.00    +0.158 A 
ATOM     21  C   LIG    1       -6.834  17.713  51.919  0.00  0.00    +0.159 A 
ATOM     26  C   LIG    1       -7.851  18.553  52.374  0.00  0.00    +0.060 A 
BRANCH  21  22
ATOM     22  O   LIG    1       -5.915  18.190  51.034  0.00  0.00    -0.503 OA
ATOM     23  H   LIG    1       -6.344  18.371  50.182  0.00  0.00    +0.292 HD
ENDBRANCH  21  22
BRANCH  20  24
ATOM     24  O   LIG    1       -5.776  15.565  51.933  0.00  0.00    -0.503 OA
ATOM     25  H   LIG    1       -5.638  15.692  50.982  0.00  0.00    +0.292 HD
ENDBRANCH  20  24
ENDBRANCH   2  17
BRANCH   8  10
ATOM     10  O   LIG    1      -11.123  21.822  58.875  0.00  0.00    -0.507 OA
ATOM     11  H   LIG    1      -11.795  22.482  59.117  0.00  0.00    +0.292 HD
ENDBRANCH   8  10
BRANCH   6  12
ATOM     12  O   LIG    1      -13.792  21.947  54.950  0.00  0.00    -0.506 OA
ATOM     13  H   LIG    1      -13.862  22.909  55.046  0.00  0.00    +0.292 HD
ENDBRANCH   6  12
BRANCH   3  15
ATOM     15  O   LIG    1      -11.085  18.868  51.697  0.00  0.00    -0.501 OA
ATOM     16  H   LIG    1      -11.387  17.945  51.701  0.00  0.00    +0.292 HD
ENDBRANCH   3  15
TORSDOF 6
ENDMDL
MODEL 7
REMARK VINA RESULT:      -6.9     29.776     31.658
REMARK  Name = 5280343
REMARK                            x       y       z     vdW  Elec       q    Type
REMARK                         _______ _______ _______ _____ _____    ______ ____
ROOT
ATOM      1  O   LIG    1      -10.382  33.459  59.850  0.00  0.00    -0.451 OA
ATOM      2  C   LIG    1      -10.651  32.426  58.966  0.00  0.00    +0.181 A 
ATOM      3  C   LIG    1       -9.979  31.261  58.928  0.00  0.00    +0.208 A 
ATOM      4  C   LIG    1       -8.883  31.035  59.902  0.00  0.00    +0.238 A 
ATOM      5  C   LIG    1       -8.613  32.130  60.846  0.00  0.00    +0.109 A 
ATOM      6  C   LIG    1       -7.604  32.014  61.805  0.00  0.00    +0.135 A 
ATOM      7  C   LIG    1       -7.368  33.068  62.687  0.00  0.00    +0.091 A 
ATOM      8  C   LIG    1       -8.135  34.231  62.612  0.00  0.00    +0.124 A 
ATOM      9  C   LIG    1       -9.142  34.344  61.653  0.00  0.00    +0.092 A 
ATOM     14  O   LIG    1       -8.238  29.994  59.917  0.00  0.00    -0.283 OA
ATOM     27  C   LIG    1       -9.381  33.290  60.770  0.00  0.00    +0.147 A 
ENDROOT
BRANCH   2  17
ATOM     17  C   LIG    1      -11.748  32.738  58.033  0.00  0.00    +0.025 A 
ATOM     18  C   LIG    1      -13.053  32.865  58.510  0.00  0.00    +0.015 A 
ATOM     19  C   LIG    1      -14.092  33.159  57.627  0.00  0.00    +0.050 A 
ATOM     20  C   LIG    1      -13.827  33.326  56.268  0.00  0.00    +0.158 A 
ATOM     21  C   LIG    1      -12.522  33.198  55.791  0.00  0.00    +0.159 A 
ATOM     26  C   LIG    1      -11.482  32.904  56.674  0.00  0.00    +0.060 A 
BRANCH  21  22
ATOM     22  O   LIG    1      -12.251  33.360  54.466  0.00  0.00    -0.503 OA
ATOM     23  H   LIG    1      -11.567  34.039  54.351  0.00  0.00    +0.292 HD
ENDBRANCH  21  22
BRANCH  20  24
ATOM     24  O   LIG    1      -14.850  33.611  55.415  0.00  0.00    -0.503 OA
ATOM     25  H   LIG    1      -15.699  33.430  55.849  0.00  0.00    +0.292 HD
ENDBRANCH  20  24
ENDBRANCH   2  17
BRANCH   8  10
ATOM     10  O   LIG    1       -7.902  35.258  63.475  0.00  0.00    -0.507 OA
ATOM     11  H   LIG    1       -7.499  34.902  64.286  0.00  0.00    +0.292 HD
ENDBRANCH   8  10
BRANCH   6  12
ATOM     12  O   LIG    1       -6.825  30.902  61.921  0.00  0.00    -0.506 OA
ATOM     13  H   LIG    1       -6.036  30.979  61.363  0.00  0.00    +0.292 HD
ENDBRANCH   6  12
BRANCH   3  15
ATOM     15  O   LIG    1      -10.249  30.266  58.014  0.00  0.00    -0.501 OA
ATOM     16  H   LIG    1      -10.636  29.498  58.466  0.00  0.00    +0.292 HD
ENDBRANCH   3  15
TORSDOF 6
ENDMDL
MODEL 8
REMARK VINA RESULT:      -6.8     26.005     27.764
REMARK  Name = 5280343
REMARK                            x       y       z     vdW  Elec       q    Type
REMARK                         _______ _______ _______ _____ _____    ______ ____
ROOT
ATOM      1  O   LIG    1        1.591  30.157  64.525  0.00  0.00    -0.451 OA
ATOM      2  C   LIG    1        1.555  31.046  63.462  0.00  0.00    +0.181 A 
ATOM      3  C   LIG    1        2.491  31.982  63.218  0.00  0.00    +0.208 A 
ATOM      4  C   LIG    1        3.661  32.076  64.124  0.00  0.00    +0.238 A 
ATOM      5  C   LIG    1        3.700  31.121  65.242  0.00  0.00    +0.109 A 
ATOM      6  C   LIG    1        4.761  31.126  66.150  0.00  0.00    +0.135 A 
ATOM      7  C   LIG    1        4.772  30.210  67.202  0.00  0.00    +0.091 A 
ATOM      8  C   LIG    1        3.729  29.294  67.346  0.00  0.00    +0.124 A 
ATOM      9  C   LIG    1        2.670  29.292  66.438  0.00  0.00    +0.092 A 
ATOM     14  O   LIG    1        4.545  32.905  63.952  0.00  0.00    -0.283 OA
ATOM     27  C   LIG    1        2.658  30.207  65.384  0.00  0.00    +0.147 A 
ENDROOT
BRANCH   2  17
ATOM     17  C   LIG    1        0.358  30.885  62.618  0.00  0.00    +0.025 A 
ATOM     18  C   LIG    1        0.254  29.793  61.756  0.00  0.00    +0.015 A 
ATOM     19  C   LIG    1       -0.879  29.640  60.957  0.00  0.00    +0.050 A 
ATOM     20  C   LIG    1       -1.907  30.580  61.018  0.00  0.00    +0.158 A 
ATOM     21  C   LIG    1       -1.803  31.673  61.879  0.00  0.00    +0.159 A 
ATOM     26  C   LIG    1       -0.671  31.825  62.679  0.00  0.00    +0.060 A 
BRANCH  21  22
ATOM     22  O   LIG    1       -2.802  32.596  61.948  0.00  0.00    -0.503 OA
ATOM     23  H   LIG    1       -2.963  32.973  61.068  0.00  0.00    +0.292 HD
ENDBRANCH  21  22
BRANCH  20  24
ATOM     24  O   LIG    1       -3.008  30.422  60.231  0.00  0.00    -0.503 OA
ATOM     25  H   LIG    1       -2.845  30.813  59.358  0.00  0.00    +0.292 HD
ENDBRANCH  20  24
ENDBRANCH   2  17
BRANCH   8  10
ATOM     10  O   LIG    1        3.743  28.403  68.375  0.00  0.00    -0.507 OA
ATOM     11  H   LIG    1        4.647  28.345  68.729  0.00  0.00    +0.292 HD
ENDBRANCH   8  10
BRANCH   6  12
ATOM     12  O   LIG    1        5.804  31.999  66.057  0.00  0.00    -0.506 OA
ATOM     13  H   LIG    1        6.417  31.722  65.359  0.00  0.00    +0.292 HD
ENDBRANCH   6  12
BRANCH   3  15
ATOM     15  O   LIG    1        2.409  32.873  62.171  0.00  0.00    -0.501 OA
ATOM     16  H   LIG    1        2.719  33.748  62.457  0.00  0.00    +0.292 HD
ENDBRANCH   3  15
TORSDOF 6
ENDMDL
MODEL 9
REMARK VINA RESULT:      -6.8      2.074      3.819
REMARK  Name = 5280343
REMARK                            x       y       z     vdW  Elec       q    Type
REMARK                         _______ _______ _______ _____ _____    ______ ____
ROOT
ATOM      1  O   LIG    1        8.599  17.107  42.743  0.00  0.00    -0.451 OA
ATOM      2  C   LIG    1        8.317  16.142  41.789  0.00  0.00    +0.181 A 
ATOM      3  C   LIG    1        9.241  15.539  41.017  0.00  0.00    +0.208 A 
ATOM      4  C   LIG    1       10.668  15.903  41.194  0.00  0.00    +0.238 A 
ATOM      5  C   LIG    1       10.961  16.917  42.218  0.00  0.00    +0.109 A 
ATOM      6  C   LIG    1       12.274  17.326  42.464  0.00  0.00    +0.135 A 
ATOM      7  C   LIG    1       12.524  18.291  43.440  0.00  0.00    +0.091 A 
ATOM      8  C   LIG    1       11.468  18.844  44.166  0.00  0.00    +0.124 A 
ATOM      9  C   LIG    1       10.158  18.434  43.918  0.00  0.00    +0.092 A 
ATOM     14  O   LIG    1       11.553  15.388  40.523  0.00  0.00    -0.283 OA
ATOM     27  C   LIG    1        9.906  17.468  42.943  0.00  0.00    +0.147 A 
ENDROOT
BRANCH   2  17
ATOM     17  C   LIG    1        6.878  15.847  41.676  0.00  0.00    +0.025 A 
ATOM     18  C   LIG    1        6.089  16.560  40.774  0.00  0.00    +0.015 A 
ATOM     19  C   LIG    1        4.726  16.282  40.667  0.00  0.00    +0.050 A 
ATOM     20  C   LIG    1        4.153  15.290  41.462  0.00  0.00    +0.158 A 
ATOM     21  C   LIG    1        4.942  14.576  42.365  0.00  0.00    +0.159 A 
ATOM     26  C   LIG    1        6.305  14.855  42.471  0.00  0.00    +0.060 A 
BRANCH  21  22
ATOM     22  O   LIG    1        4.393  13.605  43.146  0.00  0.00    -0.503 OA
ATOM     23  H   LIG    1        3.518  13.362  42.802  0.00  0.00    +0.292 HD
ENDBRANCH  21  22
BRANCH  20  24
ATOM     24  O   LIG    1        2.820  15.028  41.351  0.00  0.00    -0.503 OA
ATOM     25  H   LIG    1        2.480  14.697  42.197  0.00  0.00    +0.292 HD
ENDBRANCH  20  24
ENDBRANCH   2  17
BRANCH   8  10
ATOM     10  O   LIG    1       11.716  19.786  45.117  0.00  0.00    -0.507 OA
ATOM     11  H   LIG    1       11.017  19.743  45.793  0.00  0.00    +0.292 HD
ENDBRANCH   8  10
BRANCH   6  12
ATOM     12  O   LIG    1       13.341  16.819  41.784  0.00  0.00    -0.506 OA
ATOM     13  H   LIG    1       13.065  16.486  40.917  0.00  0.00    +0.292 HD
ENDBRANCH   6  12
BRANCH   3  15
ATOM     15  O   LIG    1        8.925  14.607  40.053  0.00  0.00    -0.501 OA
ATOM     16  H   LIG    1        8.884  15.034  39.182  0.00  0.00    +0.292 HD
ENDBRANCH   3  15
TORSDOF 6
ENDMDL
