MODEL 1
REMARK VINA RESULT:      -8.2      0.000      0.000
REMARK  Name = 5280637
REMARK                            x       y       z     vdW  Elec       q    Type
REMARK                         _______ _______ _______ _____ _____    ______ ____
ROOT
ATOM     13  C   LIG    1       -5.309  32.973  63.132  0.00  0.00    +0.131 A 
ATOM     14  C   LIG    1       -5.950  33.989  63.840  0.00  0.00    +0.092 A 
ATOM     15  C   LIG    1       -7.245  34.377  63.494  0.00  0.00    +0.135 A 
ATOM     16  C   LIG    1       -7.894  33.740  62.433  0.00  0.00    +0.105 A 
ATOM     17  C   LIG    1       -9.258  34.127  62.044  0.00  0.00    +0.197 A 
ATOM     18  C   LIG    1       -9.848  33.386  60.910  0.00  0.00    +0.098 A 
ATOM     19  C   LIG    1       -9.132  32.422  60.311  0.00  0.00    +0.139 A 
ATOM     30  O   LIG    1       -7.843  32.064  60.675  0.00  0.00    -0.454 OA
ATOM     31  O   LIG    1       -9.876  35.012  62.619  0.00  0.00    -0.287 OA
ATOM     32  C   LIG    1       -7.254  32.723  61.725  0.00  0.00    +0.146 A 
ATOM     35  C   LIG    1       -5.960  32.338  62.073  0.00  0.00    +0.093 A 
ENDROOT
BRANCH  19  20
ATOM     20  C   LIG    1       -9.667  31.654  59.167  0.00  0.00    +0.021 A 
ATOM     21  C   LIG    1       -8.839  31.332  58.090  0.00  0.00    +0.015 A 
ATOM     22  C   LIG    1       -9.344  30.608  57.010  0.00  0.00    +0.050 A 
ATOM     23  C   LIG    1      -10.679  30.203  57.005  0.00  0.00    +0.158 A 
ATOM     24  C   LIG    1      -11.509  30.524  58.080  0.00  0.00    +0.159 A 
ATOM     29  C   LIG    1      -11.003  31.248  59.160  0.00  0.00    +0.060 A 
BRANCH  24  25
ATOM     25  O   LIG    1      -12.814  30.132  58.086  0.00  0.00    -0.503 OA
ATOM     26  H   LIG    1      -13.252  30.514  57.307  0.00  0.00    +0.292 HD
ENDBRANCH  24  25
BRANCH  23  27
ATOM     27  O   LIG    1      -11.161  29.498  55.945  0.00  0.00    -0.503 OA
ATOM     28  H   LIG    1      -10.417  29.232  55.376  0.00  0.00    +0.292 HD
ENDBRANCH  23  27
ENDBRANCH  19  20
BRANCH  15  33
ATOM     33  O   LIG    1       -7.827  35.375  64.216  0.00  0.00    -0.506 OA
ATOM     34  H   LIG    1       -7.152  35.921  64.646  0.00  0.00    +0.292 HD
ENDBRANCH  15  33
BRANCH  13  12
ATOM     12  O   LIG    1       -4.043  32.598  63.475  0.00  0.00    -0.461 OA
BRANCH  12   2
ATOM      1  O   LIG    1       -2.601  31.131  62.373  0.00  0.00    -0.331 OA
ATOM      2  C   LIG    1       -3.106  32.463  62.407  0.00  0.00    +0.339 C 
ATOM      3  C   LIG    1       -1.972  33.461  62.647  0.00  0.00    +0.214 C 
ATOM      4  C   LIG    1       -0.847  33.280  61.628  0.00  0.00    +0.180 C 
ATOM      5  C   LIG    1       -0.443  31.811  61.505  0.00  0.00    +0.177 C 
ATOM     36  C   LIG    1       -1.673  30.923  61.306  0.00  0.00    +0.179 C 
BRANCH   5   6
ATOM      6  O   LIG    1        0.435  31.655  60.393  0.00  0.00    -0.386 OA
ATOM      7  H   LIG    1       -0.109  31.561  59.592  0.00  0.00    +0.210 HD
ENDBRANCH   5   6
BRANCH   4   8
ATOM      8  O   LIG    1        0.300  34.021  62.049  0.00  0.00    -0.386 OA
ATOM      9  H   LIG    1       -0.009  34.711  62.661  0.00  0.00    +0.210 HD
ENDBRANCH   4   8
BRANCH   3  10
ATOM     10  O   LIG    1       -2.505  34.780  62.536  0.00  0.00    -0.383 OA
ATOM     11  H   LIG    1       -2.363  35.235  63.383  0.00  0.00    +0.210 HD
ENDBRANCH   3  10
BRANCH  36  37
ATOM     37  C   LIG    1       -1.306  29.442  61.298  0.00  0.00    +0.190 C 
BRANCH  37  38
ATOM     38  O   LIG    1       -2.329  28.728  60.629  0.00  0.00    -0.392 OA
ATOM     39  H   LIG    1       -3.042  28.562  61.271  0.00  0.00    +0.210 HD
ENDBRANCH  37  38
ENDBRANCH  36  37
ENDBRANCH  12   2
ENDBRANCH  13  12
TORSDOF 11
ENDMDL
MODEL 2
REMARK VINA RESULT:      -7.8      1.326      2.620
REMARK  Name = 5280637
REMARK                            x       y       z     vdW  Elec       q    Type
REMARK                         _______ _______ _______ _____ _____    ______ ____
ROOT
ATOM     13  C   LIG    1       -5.087  31.703  62.547  0.00  0.00    +0.131 A 
ATOM     14  C   LIG    1       -5.435  32.549  63.600  0.00  0.00    +0.092 A 
ATOM     15  C   LIG    1       -6.660  33.218  63.586  0.00  0.00    +0.135 A 
ATOM     16  C   LIG    1       -7.533  33.034  62.512  0.00  0.00    +0.105 A 
ATOM     17  C   LIG    1       -8.830  33.726  62.469  0.00  0.00    +0.197 A 
ATOM     18  C   LIG    1       -9.675  33.456  61.288  0.00  0.00    +0.098 A 
ATOM     19  C   LIG    1       -9.232  32.615  60.341  0.00  0.00    +0.139 A 
ATOM     30  O   LIG    1       -8.005  31.970  60.380  0.00  0.00    -0.454 OA
ATOM     31  O   LIG    1       -9.196  34.484  63.357  0.00  0.00    -0.287 OA
ATOM     32  C   LIG    1       -7.187  32.188  61.460  0.00  0.00    +0.146 A 
ATOM     35  C   LIG    1       -5.962  31.521  61.475  0.00  0.00    +0.093 A 
ENDROOT
BRANCH  19  20
ATOM     20  C   LIG    1      -10.029  32.314  59.133  0.00  0.00    +0.021 A 
ATOM     21  C   LIG    1      -11.206  33.020  58.878  0.00  0.00    +0.015 A 
ATOM     22  C   LIG    1      -11.960  32.735  57.739  0.00  0.00    +0.050 A 
ATOM     23  C   LIG    1      -11.537  31.745  56.852  0.00  0.00    +0.158 A 
ATOM     24  C   LIG    1      -10.361  31.038  57.106  0.00  0.00    +0.159 A 
ATOM     29  C   LIG    1       -9.608  31.322  58.245  0.00  0.00    +0.060 A 
BRANCH  24  25
ATOM     25  O   LIG    1       -9.938  30.069  56.246  0.00  0.00    -0.503 OA
ATOM     26  H   LIG    1      -10.718  29.599  55.907  0.00  0.00    +0.292 HD
ENDBRANCH  24  25
BRANCH  23  27
ATOM     27  O   LIG    1      -12.282  31.475  55.744  0.00  0.00    -0.503 OA
ATOM     28  H   LIG    1      -11.774  31.723  54.952  0.00  0.00    +0.292 HD
ENDBRANCH  23  27
ENDBRANCH  19  20
BRANCH  15  33
ATOM     33  O   LIG    1       -6.952  34.033  64.638  0.00  0.00    -0.506 OA
ATOM     34  H   LIG    1       -7.829  33.828  64.994  0.00  0.00    +0.292 HD
ENDBRANCH  15  33
BRANCH  13  12
ATOM     12  O   LIG    1       -3.888  31.052  62.564  0.00  0.00    -0.461 OA
BRANCH  12   2
ATOM      1  O   LIG    1       -3.017  33.008  61.636  0.00  0.00    -0.331 OA
ATOM      2  C   LIG    1       -2.720  31.862  62.430  0.00  0.00    +0.339 C 
ATOM      3  C   LIG    1       -1.636  31.014  61.764  0.00  0.00    +0.214 C 
ATOM      4  C   LIG    1       -0.395  31.850  61.445  0.00  0.00    +0.180 C 
ATOM      5  C   LIG    1       -0.772  33.150  60.734  0.00  0.00    +0.177 C 
ATOM     36  C   LIG    1       -1.891  33.875  61.484  0.00  0.00    +0.179 C 
BRANCH   5   6
ATOM      6  O   LIG    1        0.373  33.997  60.662  0.00  0.00    -0.386 OA
ATOM      7  H   LIG    1        0.216  34.763  61.240  0.00  0.00    +0.210 HD
ENDBRANCH   5   6
BRANCH   4   8
ATOM      8  O   LIG    1        0.469  31.108  60.582  0.00  0.00    -0.386 OA
ATOM      9  H   LIG    1        0.516  30.201  60.930  0.00  0.00    +0.210 HD
ENDBRANCH   4   8
BRANCH   3  10
ATOM     10  O   LIG    1       -1.279  29.960  62.657  0.00  0.00    -0.383 OA
ATOM     11  H   LIG    1       -0.710  29.336  62.175  0.00  0.00    +0.210 HD
ENDBRANCH   3  10
BRANCH  36  37
ATOM     37  C   LIG    1       -2.364  35.115  60.731  0.00  0.00    +0.190 C 
BRANCH  37  38
ATOM     38  O   LIG    1       -1.544  36.207  61.102  0.00  0.00    -0.392 OA
ATOM     39  H   LIG    1       -1.608  36.311  62.067  0.00  0.00    +0.210 HD
ENDBRANCH  37  38
ENDBRANCH  36  37
ENDBRANCH  12   2
ENDBRANCH  13  12
TORSDOF 11
ENDMDL
MODEL 3
REMARK VINA RESULT:      -7.7      2.347      3.193
REMARK  Name = 5280637
REMARK                            x       y       z     vdW  Elec       q    Type
REMARK                         _______ _______ _______ _____ _____    ______ ____
ROOT
ATOM     13  C   LIG    1       -4.279  31.780  62.698  0.00  0.00    +0.131 A 
ATOM     14  C   LIG    1       -4.392  30.621  63.466  0.00  0.00    +0.092 A 
ATOM     15  C   LIG    1       -5.443  29.731  63.241  0.00  0.00    +0.135 A 
ATOM     16  C   LIG    1       -6.380  30.009  62.244  0.00  0.00    +0.105 A 
ATOM     17  C   LIG    1       -7.500  29.092  61.985  0.00  0.00    +0.197 A 
ATOM     18  C   LIG    1       -8.429  29.484  60.906  0.00  0.00    +0.098 A 
ATOM     19  C   LIG    1       -8.211  30.624  60.232  0.00  0.00    +0.139 A 
ATOM     30  O   LIG    1       -7.159  31.491  60.483  0.00  0.00    -0.454 OA
ATOM     31  O   LIG    1       -7.660  28.060  62.622  0.00  0.00    -0.287 OA
ATOM     32  C   LIG    1       -6.268  31.168  61.475  0.00  0.00    +0.146 A 
ATOM     35  C   LIG    1       -5.217  32.056  61.702  0.00  0.00    +0.093 A 
ENDROOT
BRANCH  19  20
ATOM     20  C   LIG    1       -9.111  31.072  59.149  0.00  0.00    +0.021 A 
ATOM     21  C   LIG    1       -9.702  32.336  59.206  0.00  0.00    +0.015 A 
ATOM     22  C   LIG    1      -10.553  32.757  58.184  0.00  0.00    +0.050 A 
ATOM     23  C   LIG    1      -10.814  31.916  57.103  0.00  0.00    +0.158 A 
ATOM     24  C   LIG    1      -10.226  30.652  57.044  0.00  0.00    +0.159 A 
ATOM     29  C   LIG    1       -9.375  30.231  58.066  0.00  0.00    +0.060 A 
BRANCH  24  25
ATOM     25  O   LIG    1      -10.474  29.823  55.991  0.00  0.00    -0.503 OA
ATOM     26  H   LIG    1       -9.705  29.845  55.397  0.00  0.00    +0.292 HD
ENDBRANCH  24  25
BRANCH  23  27
ATOM     27  O   LIG    1      -11.648  32.339  56.112  0.00  0.00    -0.503 OA
ATOM     28  H   LIG    1      -11.160  32.352  55.271  0.00  0.00    +0.292 HD
ENDBRANCH  23  27
ENDBRANCH  19  20
BRANCH  15  33
ATOM     33  O   LIG    1       -5.510  28.614  64.018  0.00  0.00    -0.506 OA
ATOM     34  H   LIG    1       -5.947  28.810  64.860  0.00  0.00    +0.292 HD
ENDBRANCH  15  33
BRANCH  13  12
ATOM     12  O   LIG    1       -3.250  32.647  62.922  0.00  0.00    -0.461 OA
BRANCH  12   2
ATOM      1  O   LIG    1       -1.080  32.000  62.357  0.00  0.00    -0.331 OA
ATOM      2  C   LIG    1       -2.237  32.708  61.919  0.00  0.00    +0.339 C 
ATOM      3  C   LIG    1       -1.905  34.181  61.676  0.00  0.00    +0.214 C 
ATOM      4  C   LIG    1       -0.720  34.334  60.721  0.00  0.00    +0.180 C 
ATOM      5  C   LIG    1        0.445  33.435  61.136  0.00  0.00    +0.177 C 
ATOM     36  C   LIG    1       -0.035  32.003  61.383  0.00  0.00    +0.179 C 
BRANCH   5   6
ATOM      6  O   LIG    1        1.428  33.431  60.104  0.00  0.00    -0.386 OA
ATOM      7  H   LIG    1        1.178  32.753  59.454  0.00  0.00    +0.210 HD
ENDBRANCH   5   6
BRANCH   4   8
ATOM      8  O   LIG    1       -0.264  35.687  60.741  0.00  0.00    -0.386 OA
ATOM      9  H   LIG    1        0.423  35.752  61.427  0.00  0.00    +0.210 HD
ENDBRANCH   4   8
BRANCH   3  10
ATOM     10  O   LIG    1       -3.053  34.813  61.111  0.00  0.00    -0.383 OA
ATOM     11  H   LIG    1       -3.712  34.926  61.817  0.00  0.00    +0.210 HD
ENDBRANCH   3  10
BRANCH  36  37
ATOM     37  C   LIG    1        1.088  31.115  61.911  0.00  0.00    +0.190 C 
BRANCH  37  38
ATOM     38  O   LIG    1        2.043  31.934  62.559  0.00  0.00    -0.392 OA
ATOM     39  H   LIG    1        1.787  32.003  63.495  0.00  0.00    +0.210 HD
ENDBRANCH  37  38
ENDBRANCH  36  37
ENDBRANCH  12   2
ENDBRANCH  13  12
TORSDOF 11
ENDMDL
MODEL 4
REMARK VINA RESULT:      -7.6      8.676     12.797
REMARK  Name = 5280637
REMARK                            x       y       z     vdW  Elec       q    Type
REMARK                         _______ _______ _______ _____ _____    ______ ____
ROOT
ATOM     13  C   LIG    1        5.151  30.053  67.228  0.00  0.00    +0.131 A 
ATOM     14  C   LIG    1        5.920  31.169  67.559  0.00  0.00    +0.092 A 
ATOM     15  C   LIG    1        5.675  32.397  66.943  0.00  0.00    +0.135 A 
ATOM     16  C   LIG    1        4.654  32.501  65.995  0.00  0.00    +0.105 A 
ATOM     17  C   LIG    1        4.373  33.782  65.329  0.00  0.00    +0.197 A 
ATOM     18  C   LIG    1        3.271  33.777  64.345  0.00  0.00    +0.098 A 
ATOM     19  C   LIG    1        2.597  32.639  64.117  0.00  0.00    +0.139 A 
ATOM     30  O   LIG    1        2.870  31.431  64.741  0.00  0.00    -0.454 OA
ATOM     31  O   LIG    1        5.011  34.797  65.569  0.00  0.00    -0.287 OA
ATOM     32  C   LIG    1        3.884  31.387  65.665  0.00  0.00    +0.146 A 
ATOM     35  C   LIG    1        4.132  30.160  66.281  0.00  0.00    +0.093 A 
ENDROOT
BRANCH  19  20
ATOM     20  C   LIG    1        1.492  32.572  63.139  0.00  0.00    +0.021 A 
ATOM     21  C   LIG    1        0.186  32.339  63.573  0.00  0.00    +0.015 A 
ATOM     22  C   LIG    1       -0.858  32.275  62.649  0.00  0.00    +0.050 A 
ATOM     23  C   LIG    1       -0.597  32.445  61.289  0.00  0.00    +0.158 A 
ATOM     24  C   LIG    1        0.707  32.678  60.854  0.00  0.00    +0.159 A 
ATOM     29  C   LIG    1        1.751  32.742  61.777  0.00  0.00    +0.060 A 
BRANCH  24  25
ATOM     25  O   LIG    1        0.973  32.847  59.528  0.00  0.00    -0.503 OA
ATOM     26  H   LIG    1        0.336  32.318  59.018  0.00  0.00    +0.292 HD
ENDBRANCH  24  25
BRANCH  23  27
ATOM     27  O   LIG    1       -1.624  32.380  60.397  0.00  0.00    -0.503 OA
ATOM     28  H   LIG    1       -2.199  33.155  60.518  0.00  0.00    +0.292 HD
ENDBRANCH  23  27
ENDBRANCH  19  20
BRANCH  15  33
ATOM     33  O   LIG    1        6.454  33.456  67.300  0.00  0.00    -0.506 OA
ATOM     34  H   LIG    1        7.216  33.533  66.706  0.00  0.00    +0.292 HD
ENDBRANCH  15  33
BRANCH  13  12
ATOM     12  O   LIG    1        5.395  28.855  67.832  0.00  0.00    -0.461 OA
BRANCH  12   2
ATOM      1  O   LIG    1        7.450  28.601  68.907  0.00  0.00    -0.331 OA
ATOM      2  C   LIG    1        6.068  28.899  69.089  0.00  0.00    +0.339 C 
ATOM      3  C   LIG    1        5.415  27.867  70.009  0.00  0.00    +0.214 C 
ATOM      4  C   LIG    1        6.173  27.741  71.331  0.00  0.00    +0.180 C 
ATOM      5  C   LIG    1        7.675  27.584  71.095  0.00  0.00    +0.177 C 
ATOM     36  C   LIG    1        8.188  28.654  70.129  0.00  0.00    +0.179 C 
BRANCH   5   6
ATOM      6  O   LIG    1        8.362  27.702  72.338  0.00  0.00    -0.386 OA
ATOM      7  H   LIG    1        9.010  28.423  72.255  0.00  0.00    +0.210 HD
ENDBRANCH   5   6
BRANCH   4   8
ATOM      8  O   LIG    1        5.712  26.587  72.036  0.00  0.00    -0.386 OA
ATOM      9  H   LIG    1        5.485  26.869  72.939  0.00  0.00    +0.210 HD
ENDBRANCH   4   8
BRANCH   3  10
ATOM     10  O   LIG    1        4.075  28.283  70.269  0.00  0.00    -0.383 OA
ATOM     11  H   LIG    1        3.822  28.929  69.587  0.00  0.00    +0.210 HD
ENDBRANCH   3  10
BRANCH  36  37
ATOM     37  C   LIG    1        9.660  28.446  69.787  0.00  0.00    +0.190 C 
BRANCH  37  38
ATOM     38  O   LIG    1       10.024  27.127  70.148  0.00  0.00    -0.392 OA
ATOM     39  H   LIG    1       10.419  27.161  71.036  0.00  0.00    +0.210 HD
ENDBRANCH  37  38
ENDBRANCH  36  37
ENDBRANCH  12   2
ENDBRANCH  13  12
TORSDOF 11
ENDMDL
MODEL 5
REMARK VINA RESULT:      -7.3      2.105      2.861
REMARK  Name = 5280637
REMARK                            x       y       z     vdW  Elec       q    Type
REMARK                         _______ _______ _______ _____ _____    ______ ____
ROOT
ATOM     13  C   LIG    1       -7.846  33.323  63.578  0.00  0.00    +0.131 A 
ATOM     14  C   LIG    1       -8.646  33.928  64.548  0.00  0.00    +0.092 A 
ATOM     15  C   LIG    1       -9.960  34.288  64.248  0.00  0.00    +0.135 A 
ATOM     16  C   LIG    1      -10.469  34.038  62.971  0.00  0.00    +0.105 A 
ATOM     17  C   LIG    1      -11.850  34.407  62.625  0.00  0.00    +0.197 A 
ATOM     18  C   LIG    1      -12.283  34.095  61.247  0.00  0.00    +0.098 A 
ATOM     19  C   LIG    1      -11.421  33.504  60.405  0.00  0.00    +0.139 A 
ATOM     30  O   LIG    1      -10.117  33.164  60.732  0.00  0.00    -0.454 OA
ATOM     31  O   LIG    1      -12.603  34.943  63.425  0.00  0.00    -0.287 OA
ATOM     32  C   LIG    1       -9.671  33.433  62.001  0.00  0.00    +0.146 A 
ATOM     35  C   LIG    1       -8.357  33.075  62.303  0.00  0.00    +0.093 A 
ENDROOT
BRANCH  19  20
ATOM     20  C   LIG    1      -11.795  33.177  59.013  0.00  0.00    +0.021 A 
ATOM     21  C   LIG    1      -12.950  33.724  58.451  0.00  0.00    +0.015 A 
ATOM     22  C   LIG    1      -13.304  33.414  57.138  0.00  0.00    +0.050 A 
ATOM     23  C   LIG    1      -12.504  32.555  56.384  0.00  0.00    +0.158 A 
ATOM     24  C   LIG    1      -11.350  32.006  56.944  0.00  0.00    +0.159 A 
ATOM     29  C   LIG    1      -10.996  32.317  58.257  0.00  0.00    +0.060 A 
BRANCH  24  25
ATOM     25  O   LIG    1      -10.560  31.168  56.216  0.00  0.00    -0.503 OA
ATOM     26  H   LIG    1      -11.131  30.519  55.771  0.00  0.00    +0.292 HD
ENDBRANCH  24  25
BRANCH  23  27
ATOM     27  O   LIG    1      -12.861  32.259  55.103  0.00  0.00    -0.503 OA
ATOM     28  H   LIG    1      -13.435  31.474  55.108  0.00  0.00    +0.292 HD
ENDBRANCH  23  27
ENDBRANCH  19  20
BRANCH  15  33
ATOM     33  O   LIG    1      -10.700  34.876  65.229  0.00  0.00    -0.506 OA
ATOM     34  H   LIG    1      -10.209  34.888  66.064  0.00  0.00    +0.292 HD
ENDBRANCH  15  33
BRANCH  13  12
ATOM     12  O   LIG    1       -6.562  32.973  63.876  0.00  0.00    -0.461 OA
BRANCH  12   2
ATOM      1  O   LIG    1       -4.816  31.903  62.758  0.00  0.00    -0.331 OA
ATOM      2  C   LIG    1       -5.609  33.086  62.820  0.00  0.00    +0.339 C 
ATOM      3  C   LIG    1       -4.731  34.305  63.108  0.00  0.00    +0.214 C 
ATOM      4  C   LIG    1       -3.584  34.413  62.102  0.00  0.00    +0.180 C 
ATOM      5  C   LIG    1       -2.858  33.078  61.945  0.00  0.00    +0.177 C 
ATOM     36  C   LIG    1       -3.855  31.942  61.702  0.00  0.00    +0.179 C 
BRANCH   5   6
ATOM      6  O   LIG    1       -1.956  33.158  60.844  0.00  0.00    -0.386 OA
ATOM      7  H   LIG    1       -1.111  33.508  61.173  0.00  0.00    +0.210 HD
ENDBRANCH   5   6
BRANCH   4   8
ATOM      8  O   LIG    1       -2.638  35.380  62.563  0.00  0.00    -0.386 OA
ATOM      9  H   LIG    1       -3.095  36.238  62.602  0.00  0.00    +0.210 HD
ENDBRANCH   4   8
BRANCH   3  10
ATOM     10  O   LIG    1       -5.546  35.473  63.024  0.00  0.00    -0.383 OA
ATOM     11  H   LIG    1       -5.109  36.183  63.525  0.00  0.00    +0.210 HD
ENDBRANCH   3  10
BRANCH  36  37
ATOM     37  C   LIG    1       -3.163  30.583  61.658  0.00  0.00    +0.190 C 
BRANCH  37  38
ATOM     38  O   LIG    1       -2.838  30.286  60.313  0.00  0.00    -0.392 OA
ATOM     39  H   LIG    1       -3.605  29.838  59.915  0.00  0.00    +0.210 HD
ENDBRANCH  37  38
ENDBRANCH  36  37
ENDBRANCH  12   2
ENDBRANCH  13  12
TORSDOF 11
ENDMDL
MODEL 6
REMARK VINA RESULT:      -7.2      1.786      8.943
REMARK  Name = 5280637
REMARK                            x       y       z     vdW  Elec       q    Type
REMARK                         _______ _______ _______ _____ _____    ______ ____
ROOT
ATOM     13  C   LIG    1       -8.486  31.698  61.066  0.00  0.00    +0.131 A 
ATOM     14  C   LIG    1       -8.785  32.860  61.777  0.00  0.00    +0.092 A 
ATOM     15  C   LIG    1       -7.774  33.556  62.441  0.00  0.00    +0.135 A 
ATOM     16  C   LIG    1       -6.461  33.082  62.387  0.00  0.00    +0.105 A 
ATOM     17  C   LIG    1       -5.374  33.793  63.077  0.00  0.00    +0.197 A 
ATOM     18  C   LIG    1       -4.026  33.203  62.951  0.00  0.00    +0.098 A 
ATOM     19  C   LIG    1       -3.863  32.081  62.232  0.00  0.00    +0.139 A 
ATOM     30  O   LIG    1       -4.890  31.409  61.589  0.00  0.00    -0.454 OA
ATOM     31  O   LIG    1       -5.567  34.815  63.720  0.00  0.00    -0.287 OA
ATOM     32  C   LIG    1       -6.161  31.920  61.675  0.00  0.00    +0.146 A 
ATOM     35  C   LIG    1       -7.173  31.226  61.014  0.00  0.00    +0.093 A 
ENDROOT
BRANCH  19  20
ATOM     20  C   LIG    1       -2.539  31.442  62.079  0.00  0.00    +0.021 A 
ATOM     21  C   LIG    1       -2.402  30.294  61.295  0.00  0.00    +0.015 A 
ATOM     22  C   LIG    1       -1.153  29.690  61.152  0.00  0.00    +0.050 A 
ATOM     23  C   LIG    1       -0.038  30.233  61.791  0.00  0.00    +0.158 A 
ATOM     24  C   LIG    1       -0.173  31.379  62.575  0.00  0.00    +0.159 A 
ATOM     29  C   LIG    1       -1.422  31.983  62.718  0.00  0.00    +0.060 A 
BRANCH  24  25
ATOM     25  O   LIG    1        0.910  31.918  63.202  0.00  0.00    -0.503 OA
ATOM     26  H   LIG    1        1.305  31.236  63.772  0.00  0.00    +0.292 HD
ENDBRANCH  24  25
BRANCH  23  27
ATOM     27  O   LIG    1        1.176  29.633  61.644  0.00  0.00    -0.503 OA
ATOM     28  H   LIG    1        1.069  28.826  61.111  0.00  0.00    +0.292 HD
ENDBRANCH  23  27
ENDBRANCH  19  20
BRANCH  15  33
ATOM     33  O   LIG    1       -8.117  34.685  63.122  0.00  0.00    -0.506 OA
ATOM     34  H   LIG    1       -9.041  34.640  63.410  0.00  0.00    +0.292 HD
ENDBRANCH  15  33
BRANCH  13  12
ATOM     12  O   LIG    1       -9.478  31.020  60.420  0.00  0.00    -0.461 OA
BRANCH  12   2
ATOM      1  O   LIG    1      -11.068  32.190  59.176  0.00  0.00    -0.331 OA
ATOM      2  C   LIG    1       -9.828  31.489  59.119  0.00  0.00    +0.339 C 
ATOM      3  C   LIG    1       -9.941  30.275  58.197  0.00  0.00    +0.214 C 
ATOM      4  C   LIG    1      -10.460  30.672  56.814  0.00  0.00    +0.180 C 
ATOM      5  C   LIG    1      -11.701  31.559  56.923  0.00  0.00    +0.177 C 
ATOM     36  C   LIG    1      -11.463  32.708  57.905  0.00  0.00    +0.179 C 
BRANCH   5   6
ATOM      6  O   LIG    1      -12.014  32.092  55.639  0.00  0.00    -0.386 OA
ATOM      7  H   LIG    1      -11.256  31.927  55.053  0.00  0.00    +0.210 HD
ENDBRANCH   5   6
BRANCH   4   8
ATOM      8  O   LIG    1      -10.818  29.497  56.085  0.00  0.00    -0.386 OA
ATOM      9  H   LIG    1      -10.329  29.518  55.244  0.00  0.00    +0.210 HD
ENDBRANCH   4   8
BRANCH   3  10
ATOM     10  O   LIG    1       -8.646  29.690  58.065  0.00  0.00    -0.383 OA
ATOM     11  H   LIG    1       -8.024  30.211  58.601  0.00  0.00    +0.210 HD
ENDBRANCH   3  10
BRANCH  36  37
ATOM     37  C   LIG    1      -12.726  33.538  58.119  0.00  0.00    +0.190 C 
BRANCH  37  38
ATOM     38  O   LIG    1      -13.833  32.807  57.625  0.00  0.00    -0.392 OA
ATOM     39  H   LIG    1      -14.266  32.377  58.383  0.00  0.00    +0.210 HD
ENDBRANCH  37  38
ENDBRANCH  36  37
ENDBRANCH  12   2
ENDBRANCH  13  12
TORSDOF 11
ENDMDL
MODEL 7
REMARK VINA RESULT:      -7.2      6.471     11.217
REMARK  Name = 5280637
REMARK                            x       y       z     vdW  Elec       q    Type
REMARK                         _______ _______ _______ _____ _____    ______ ____
ROOT
ATOM     13  C   LIG    1       -1.966  29.060  63.306  0.00  0.00    +0.131 A 
ATOM     14  C   LIG    1       -2.396  29.667  62.126  0.00  0.00    +0.092 A 
ATOM     15  C   LIG    1       -1.676  30.731  61.582  0.00  0.00    +0.135 A 
ATOM     16  C   LIG    1       -0.521  31.182  62.225  0.00  0.00    +0.105 A 
ATOM     17  C   LIG    1        0.259  32.301  61.676  0.00  0.00    +0.197 A 
ATOM     18  C   LIG    1        1.463  32.693  62.437  0.00  0.00    +0.098 A 
ATOM     19  C   LIG    1        1.778  32.026  63.558  0.00  0.00    +0.139 A 
ATOM     30  O   LIG    1        1.037  30.976  64.078  0.00  0.00    -0.454 OA
ATOM     31  O   LIG    1       -0.064  32.880  60.648  0.00  0.00    -0.287 OA
ATOM     32  C   LIG    1       -0.089  30.575  63.404  0.00  0.00    +0.146 A 
ATOM     35  C   LIG    1       -0.812  29.513  63.947  0.00  0.00    +0.093 A 
ENDROOT
BRANCH  19  20
ATOM     20  C   LIG    1        2.965  32.380  64.365  0.00  0.00    +0.021 A 
ATOM     21  C   LIG    1        3.664  31.387  65.055  0.00  0.00    +0.015 A 
ATOM     22  C   LIG    1        4.783  31.721  65.818  0.00  0.00    +0.050 A 
ATOM     23  C   LIG    1        5.206  33.048  65.891  0.00  0.00    +0.158 A 
ATOM     24  C   LIG    1        4.509  34.042  65.203  0.00  0.00    +0.159 A 
ATOM     29  C   LIG    1        3.390  33.708  64.441  0.00  0.00    +0.060 A 
BRANCH  24  25
ATOM     25  O   LIG    1        4.915  35.341  65.267  0.00  0.00    -0.503 OA
ATOM     26  H   LIG    1        5.201  35.528  66.177  0.00  0.00    +0.292 HD
ENDBRANCH  24  25
BRANCH  23  27
ATOM     27  O   LIG    1        6.300  33.362  66.640  0.00  0.00    -0.503 OA
ATOM     28  H   LIG    1        6.061  33.323  67.582  0.00  0.00    +0.292 HD
ENDBRANCH  23  27
ENDBRANCH  19  20
BRANCH  15  33
ATOM     33  O   LIG    1       -2.138  31.290  60.429  0.00  0.00    -0.506 OA
ATOM     34  H   LIG    1       -1.442  31.306  59.755  0.00  0.00    +0.292 HD
ENDBRANCH  15  33
BRANCH  13  12
ATOM     12  O   LIG    1       -2.675  28.021  63.835  0.00  0.00    -0.461 OA
BRANCH  12   2
ATOM      1  O   LIG    1       -1.252  26.420  64.760  0.00  0.00    -0.331 OA
ATOM      2  C   LIG    1       -2.178  27.464  65.051  0.00  0.00    +0.339 C 
ATOM      3  C   LIG    1       -3.370  26.918  65.838  0.00  0.00    +0.214 C 
ATOM      4  C   LIG    1       -2.913  26.167  67.090  0.00  0.00    +0.180 C 
ATOM      5  C   LIG    1       -1.803  25.169  66.761  0.00  0.00    +0.177 C 
ATOM     36  C   LIG    1       -0.697  25.836  65.940  0.00  0.00    +0.179 C 
BRANCH   5   6
ATOM      6  O   LIG    1       -1.250  24.662  67.973  0.00  0.00    -0.386 OA
ATOM      7  H   LIG    1       -1.917  24.091  68.392  0.00  0.00    +0.210 HD
ENDBRANCH   5   6
BRANCH   4   8
ATOM      8  O   LIG    1       -4.014  25.441  67.637  0.00  0.00    -0.386 OA
ATOM      9  H   LIG    1       -4.573  26.078  68.116  0.00  0.00    +0.210 HD
ENDBRANCH   4   8
BRANCH   3  10
ATOM     10  O   LIG    1       -4.195  28.018  66.222  0.00  0.00    -0.383 OA
ATOM     11  H   LIG    1       -4.449  28.499  65.416  0.00  0.00    +0.210 HD
ENDBRANCH   3  10
BRANCH  36  37
ATOM     37  C   LIG    1        0.364  24.831  65.500  0.00  0.00    +0.190 C 
BRANCH  37  38
ATOM     38  O   LIG    1        1.343  24.736  66.518  0.00  0.00    -0.392 OA
ATOM     39  H   LIG    1        1.202  25.475  67.135  0.00  0.00    +0.210 HD
ENDBRANCH  37  38
ENDBRANCH  36  37
ENDBRANCH  12   2
ENDBRANCH  13  12
TORSDOF 11
ENDMDL
MODEL 8
REMARK VINA RESULT:      -7.2      4.283     11.483
REMARK  Name = 5280637
REMARK                            x       y       z     vdW  Elec       q    Type
REMARK                         _______ _______ _______ _____ _____    ______ ____
ROOT
ATOM     13  C   LIG    1       -1.930  31.357  63.332  0.00  0.00    +0.131 A 
ATOM     14  C   LIG    1       -1.763  31.831  62.031  0.00  0.00    +0.092 A 
ATOM     15  C   LIG    1       -0.519  32.304  61.611  0.00  0.00    +0.135 A 
ATOM     16  C   LIG    1        0.556  32.298  62.501  0.00  0.00    +0.105 A 
ATOM     17  C   LIG    1        1.879  32.791  62.088  0.00  0.00    +0.197 A 
ATOM     18  C   LIG    1        2.944  32.738  63.110  0.00  0.00    +0.098 A 
ATOM     19  C   LIG    1        2.662  32.253  64.330  0.00  0.00    +0.139 A 
ATOM     30  O   LIG    1        1.412  31.796  64.719  0.00  0.00    -0.454 OA
ATOM     31  O   LIG    1        2.094  33.223  60.964  0.00  0.00    -0.287 OA
ATOM     32  C   LIG    1        0.391  31.824  63.802  0.00  0.00    +0.146 A 
ATOM     35  C   LIG    1       -0.853  31.353  64.220  0.00  0.00    +0.093 A 
ENDROOT
BRANCH  19  20
ATOM     20  C   LIG    1        3.684  32.183  65.394  0.00  0.00    +0.021 A 
ATOM     21  C   LIG    1        3.575  32.996  66.525  0.00  0.00    +0.015 A 
ATOM     22  C   LIG    1        4.541  32.931  67.529  0.00  0.00    +0.050 A 
ATOM     23  C   LIG    1        5.618  32.052  67.405  0.00  0.00    +0.158 A 
ATOM     24  C   LIG    1        5.729  31.240  66.277  0.00  0.00    +0.159 A 
ATOM     29  C   LIG    1        4.763  31.305  65.272  0.00  0.00    +0.060 A 
BRANCH  24  25
ATOM     25  O   LIG    1        6.776  30.378  66.147  0.00  0.00    -0.503 OA
ATOM     26  H   LIG    1        6.728  29.728  66.869  0.00  0.00    +0.292 HD
ENDBRANCH  24  25
BRANCH  23  27
ATOM     27  O   LIG    1        6.555  31.999  68.392  0.00  0.00    -0.503 OA
ATOM     28  H   LIG    1        6.447  32.771  68.974  0.00  0.00    +0.292 HD
ENDBRANCH  23  27
ENDBRANCH  19  20
BRANCH  15  33
ATOM     33  O   LIG    1       -0.408  32.756  60.330  0.00  0.00    -0.506 OA
ATOM     34  H   LIG    1       -0.091  32.052  59.746  0.00  0.00    +0.292 HD
ENDBRANCH  15  33
BRANCH  13  12
ATOM     12  O   LIG    1       -3.148  30.897  63.738  0.00  0.00    -0.461 OA
BRANCH  12   2
ATOM      1  O   LIG    1       -4.805  32.537  63.831  0.00  0.00    -0.331 OA
ATOM      2  C   LIG    1       -4.289  31.442  63.078  0.00  0.00    +0.339 C 
ATOM      3  C   LIG    1       -5.336  30.334  62.956  0.00  0.00    +0.214 C 
ATOM      4  C   LIG    1       -6.652  30.872  62.393  0.00  0.00    +0.180 C 
ATOM      5  C   LIG    1       -7.090  32.141  63.125  0.00  0.00    +0.177 C 
ATOM     36  C   LIG    1       -5.938  33.145  63.208  0.00  0.00    +0.179 C 
BRANCH   5   6
ATOM      6  O   LIG    1       -8.183  32.734  62.428  0.00  0.00    -0.386 OA
ATOM      7  H   LIG    1       -7.867  33.560  62.022  0.00  0.00    +0.210 HD
ENDBRANCH   5   6
BRANCH   4   8
ATOM      8  O   LIG    1       -7.677  29.890  62.558  0.00  0.00    -0.386 OA
ATOM      9  H   LIG    1       -7.292  29.151  63.059  0.00  0.00    +0.210 HD
ENDBRANCH   4   8
BRANCH   3  10
ATOM     10  O   LIG    1       -4.824  29.328  62.084  0.00  0.00    -0.383 OA
ATOM     11  H   LIG    1       -5.564  28.983  61.554  0.00  0.00    +0.210 HD
ENDBRANCH   3  10
BRANCH  36  37
ATOM     37  C   LIG    1       -6.315  34.370  64.035  0.00  0.00    +0.190 C 
BRANCH  37  38
ATOM     38  O   LIG    1       -6.832  35.360  63.165  0.00  0.00    -0.392 OA
ATOM     39  H   LIG    1       -7.601  34.978  62.707  0.00  0.00    +0.210 HD
ENDBRANCH  37  38
ENDBRANCH  36  37
ENDBRANCH  12   2
ENDBRANCH  13  12
TORSDOF 11
ENDMDL
MODEL 9
REMARK VINA RESULT:      -7.2      3.271     10.722
REMARK  Name = 5280637
REMARK                            x       y       z     vdW  Elec       q    Type
REMARK                         _______ _______ _______ _____ _____    ______ ____
ROOT
ATOM     13  C   LIG    1       -3.045  33.005  62.450  0.00  0.00    +0.131 A 
ATOM     14  C   LIG    1       -3.152  31.916  61.585  0.00  0.00    +0.092 A 
ATOM     15  C   LIG    1       -2.058  31.076  61.376  0.00  0.00    +0.135 A 
ATOM     16  C   LIG    1       -0.856  31.333  62.039  0.00  0.00    +0.105 A 
ATOM     17  C   LIG    1        0.316  30.466  61.838  0.00  0.00    +0.197 A 
ATOM     18  C   LIG    1        1.534  30.830  62.591  0.00  0.00    +0.098 A 
ATOM     19  C   LIG    1        1.511  31.901  63.400  0.00  0.00    +0.139 A 
ATOM     30  O   LIG    1        0.408  32.720  63.582  0.00  0.00    -0.454 OA
ATOM     31  O   LIG    1        0.292  29.498  61.091  0.00  0.00    -0.287 OA
ATOM     32  C   LIG    1       -0.748  32.420  62.905  0.00  0.00    +0.146 A 
ATOM     35  C   LIG    1       -1.842  33.259  63.111  0.00  0.00    +0.093 A 
ENDROOT
BRANCH  19  20
ATOM     20  C   LIG    1        2.701  32.317  64.171  0.00  0.00    +0.021 A 
ATOM     21  C   LIG    1        3.493  31.360  64.809  0.00  0.00    +0.015 A 
ATOM     22  C   LIG    1        4.615  31.754  65.538  0.00  0.00    +0.050 A 
ATOM     23  C   LIG    1        4.950  33.105  65.629  0.00  0.00    +0.158 A 
ATOM     24  C   LIG    1        4.160  34.063  64.992  0.00  0.00    +0.159 A 
ATOM     29  C   LIG    1        3.037  33.669  64.264  0.00  0.00    +0.060 A 
BRANCH  24  25
ATOM     25  O   LIG    1        4.478  35.385  65.073  0.00  0.00    -0.503 OA
ATOM     26  H   LIG    1        3.997  35.770  65.825  0.00  0.00    +0.292 HD
ENDBRANCH  24  25
BRANCH  23  27
ATOM     27  O   LIG    1        6.048  33.477  66.344  0.00  0.00    -0.503 OA
ATOM     28  H   LIG    1        6.702  33.868  65.740  0.00  0.00    +0.292 HD
ENDBRANCH  23  27
ENDBRANCH  19  20
BRANCH  15  33
ATOM     33  O   LIG    1       -2.213  30.027  60.521  0.00  0.00    -0.506 OA
ATOM     34  H   LIG    1       -2.174  29.187  61.002  0.00  0.00    +0.292 HD
ENDBRANCH  15  33
BRANCH  13  12
ATOM     12  O   LIG    1       -4.118  33.823  62.650  0.00  0.00    -0.461 OA
BRANCH  12   2
ATOM      1  O   LIG    1       -6.351  33.272  62.262  0.00  0.00    -0.331 OA
ATOM      2  C   LIG    1       -5.285  33.221  63.207  0.00  0.00    +0.339 C 
ATOM      3  C   LIG    1       -5.654  33.993  64.474  0.00  0.00    +0.214 C 
ATOM      4  C   LIG    1       -6.983  33.508  65.054  0.00  0.00    +0.180 C 
ATOM      5  C   LIG    1       -8.061  33.423  63.973  0.00  0.00    +0.177 C 
ATOM     36  C   LIG    1       -7.546  32.660  62.751  0.00  0.00    +0.179 C 
BRANCH   5   6
ATOM      6  O   LIG    1       -9.205  32.755  64.499  0.00  0.00    -0.386 OA
ATOM      7  H   LIG    1       -9.958  32.943  63.914  0.00  0.00    +0.210 HD
ENDBRANCH   5   6
BRANCH   4   8
ATOM      8  O   LIG    1       -7.429  34.425  66.054  0.00  0.00    -0.386 OA
ATOM      9  H   LIG    1       -7.434  33.950  66.903  0.00  0.00    +0.210 HD
ENDBRANCH   4   8
BRANCH   3  10
ATOM     10  O   LIG    1       -4.618  33.798  65.436  0.00  0.00    -0.383 OA
ATOM     11  H   LIG    1       -4.284  34.673  65.701  0.00  0.00    +0.210 HD
ENDBRANCH   3  10
BRANCH  36  37
ATOM     37  C   LIG    1       -8.563  32.664  61.614  0.00  0.00    +0.190 C 
BRANCH  37  38
ATOM     38  O   LIG    1       -9.293  33.875  61.667  0.00  0.00    -0.392 OA
ATOM     39  H   LIG    1       -9.753  33.906  62.523  0.00  0.00    +0.210 HD
ENDBRANCH  37  38
ENDBRANCH  36  37
ENDBRANCH  12   2
ENDBRANCH  13  12
TORSDOF 11
ENDMDL
