MODEL 1
REMARK VINA RESULT:      -5.7      0.000      0.000
REMARK  Name = 445858
REMARK                            x       y       z     vdW  Elec       q    Type
REMARK                         _______ _______ _______ _____ _____    ______ ____
ROOT
ATOM      3  C   LIG    1        0.942  32.283  61.369  0.00  0.00    +0.162 A 
ATOM      4  C   LIG    1        0.710  30.926  61.600  0.00  0.00    +0.158 A 
ATOM      5  C   LIG    1        1.479  30.238  62.538  0.00  0.00    +0.050 A 
ATOM      6  C   LIG    1        2.481  30.904  63.244  0.00  0.00    +0.012 A 
ATOM      7  C   LIG    1        2.713  32.259  63.012  0.00  0.00    -0.021 A 
ATOM     16  C   LIG    1        1.944  32.949  62.075  0.00  0.00    +0.057 A 
ENDROOT
BRANCH   3   1
ATOM      1  O   LIG    1        0.198  32.966  60.454  0.00  0.00    -0.491 OA
ATOM      2  C   LIG    1       -0.284  34.251  60.843  0.00  0.00    +0.277 C 
ENDBRANCH   3   1
BRANCH   7   8
ATOM      8  C   LIG    1        3.756  32.954  63.749  0.00  0.00    +0.015 C 
ATOM      9  C   LIG    1        3.633  33.451  65.000  0.00  0.00    +0.092 C 
BRANCH   9  10
ATOM     10  C   LIG    1        4.774  34.129  65.644  0.00  0.00    +0.330 C 
ATOM     11  O   LIG    1        5.541  33.643  66.459  0.00  0.00    -0.246 OA
BRANCH  10  12
ATOM     12  O   LIG    1        4.842  35.399  65.181  0.00  0.00    -0.478 OA
ATOM     13  H   LIG    1        5.719  35.805  65.348  0.00  0.00    +0.295 HD
ENDBRANCH  10  12
ENDBRANCH   9  10
ENDBRANCH   7   8
BRANCH   4  14
ATOM     14  O   LIG    1       -0.265  30.265  60.916  0.00  0.00    -0.503 OA
ATOM     15  H   LIG    1       -0.003  29.333  60.814  0.00  0.00    +0.292 HD
ENDBRANCH   4  14
TORSDOF 5
ENDMDL
MODEL 2
REMARK VINA RESULT:      -5.4      2.111      6.316
REMARK  Name = 445858
REMARK                            x       y       z     vdW  Elec       q    Type
REMARK                         _______ _______ _______ _____ _____    ______ ____
ROOT
ATOM      3  C   LIG    1        3.274  31.236  64.063  0.00  0.00    +0.162 A 
ATOM      4  C   LIG    1        3.520  32.481  63.483  0.00  0.00    +0.158 A 
ATOM      5  C   LIG    1        2.679  32.960  62.480  0.00  0.00    +0.050 A 
ATOM      6  C   LIG    1        1.591  32.196  62.056  0.00  0.00    +0.012 A 
ATOM      7  C   LIG    1        1.346  30.952  62.635  0.00  0.00    -0.021 A 
ATOM     16  C   LIG    1        2.187  30.471  63.639  0.00  0.00    +0.057 A 
ENDROOT
BRANCH   3   1
ATOM      1  O   LIG    1        4.089  30.756  65.044  0.00  0.00    -0.491 OA
ATOM      2  C   LIG    1        3.549  30.695  66.363  0.00  0.00    +0.277 C 
ENDBRANCH   3   1
BRANCH   7   8
ATOM      8  C   LIG    1        0.213  30.155  62.194  0.00  0.00    +0.015 C 
ATOM      9  C   LIG    1       -0.813  30.606  61.437  0.00  0.00    +0.092 C 
BRANCH   9  10
ATOM     10  C   LIG    1       -1.903  29.690  61.046  0.00  0.00    +0.330 C 
ATOM     11  O   LIG    1       -2.018  28.519  61.370  0.00  0.00    -0.246 OA
BRANCH  10  12
ATOM     12  O   LIG    1       -2.774  30.364  60.259  0.00  0.00    -0.478 OA
ATOM     13  H   LIG    1       -2.734  31.332  60.411  0.00  0.00    +0.295 HD
ENDBRANCH  10  12
ENDBRANCH   9  10
ENDBRANCH   7   8
BRANCH   4  14
ATOM     14  O   LIG    1        4.579  33.236  63.888  0.00  0.00    -0.503 OA
ATOM     15  H   LIG    1        5.400  32.836  63.554  0.00  0.00    +0.292 HD
ENDBRANCH   4  14
TORSDOF 5
ENDMDL
MODEL 3
REMARK VINA RESULT:      -5.4      1.791      2.256
REMARK  Name = 445858
REMARK                            x       y       z     vdW  Elec       q    Type
REMARK                         _______ _______ _______ _____ _____    ______ ____
ROOT
ATOM      3  C   LIG    1       -1.242  32.120  61.408  0.00  0.00    +0.162 A 
ATOM      4  C   LIG    1       -1.460  30.805  60.995  0.00  0.00    +0.158 A 
ATOM      5  C   LIG    1       -0.487  29.833  61.224  0.00  0.00    +0.050 A 
ATOM      6  C   LIG    1        0.705  30.174  61.864  0.00  0.00    +0.012 A 
ATOM      7  C   LIG    1        0.922  31.488  62.277  0.00  0.00    -0.021 A 
ATOM     16  C   LIG    1       -0.050  32.462  62.049  0.00  0.00    +0.057 A 
ENDROOT
BRANCH   3   1
ATOM      1  O   LIG    1       -2.185  33.079  61.190  0.00  0.00    -0.491 OA
ATOM      2  C   LIG    1       -1.716  34.406  60.958  0.00  0.00    +0.277 C 
ENDBRANCH   3   1
BRANCH   7   8
ATOM      8  C   LIG    1        2.163  31.844  62.945  0.00  0.00    +0.015 C 
ATOM      9  C   LIG    1        2.466  33.068  63.433  0.00  0.00    +0.092 C 
BRANCH   9  10
ATOM     10  C   LIG    1        3.762  33.299  64.102  0.00  0.00    +0.330 C 
ATOM     11  O   LIG    1        3.940  33.900  65.149  0.00  0.00    -0.246 OA
BRANCH  10  12
ATOM     12  O   LIG    1        4.741  32.729  63.362  0.00  0.00    -0.478 OA
ATOM     13  H   LIG    1        4.528  32.735  62.405  0.00  0.00    +0.295 HD
ENDBRANCH  10  12
ENDBRANCH   9  10
ENDBRANCH   7   8
BRANCH   4  14
ATOM     14  O   LIG    1       -2.618  30.460  60.368  0.00  0.00    -0.503 OA
ATOM     15  H   LIG    1       -3.256  31.190  60.455  0.00  0.00    +0.292 HD
ENDBRANCH   4  14
TORSDOF 5
ENDMDL
MODEL 4
REMARK VINA RESULT:      -5.3     24.762     25.942
REMARK  Name = 445858
REMARK                            x       y       z     vdW  Elec       q    Type
REMARK                         _______ _______ _______ _____ _____    ______ ____
ROOT
ATOM      3  C   LIG    1      -14.310  27.104  44.357  0.00  0.00    +0.162 A 
ATOM      4  C   LIG    1      -14.267  27.735  43.113  0.00  0.00    +0.158 A 
ATOM      5  C   LIG    1      -14.954  28.932  42.916  0.00  0.00    +0.050 A 
ATOM      6  C   LIG    1      -15.683  29.499  43.961  0.00  0.00    +0.012 A 
ATOM      7  C   LIG    1      -15.726  28.868  45.203  0.00  0.00    -0.021 A 
ATOM     16  C   LIG    1      -15.039  27.671  45.402  0.00  0.00    +0.057 A 
ENDROOT
BRANCH   3   1
ATOM      1  O   LIG    1      -13.643  25.933  44.562  0.00  0.00    -0.491 OA
ATOM      2  C   LIG    1      -13.643  25.412  45.890  0.00  0.00    +0.277 C 
ENDBRANCH   3   1
BRANCH   7   8
ATOM      8  C   LIG    1      -16.486  29.460  46.293  0.00  0.00    +0.015 C 
ATOM      9  C   LIG    1      -17.315  30.522  46.183  0.00  0.00    +0.092 C 
BRANCH   9  10
ATOM     10  C   LIG    1      -18.039  31.023  47.367  0.00  0.00    +0.330 C 
ATOM     11  O   LIG    1      -19.038  30.531  47.868  0.00  0.00    -0.246 OA
BRANCH  10  12
ATOM     12  O   LIG    1      -17.412  32.132  47.823  0.00  0.00    -0.478 OA
ATOM     13  H   LIG    1      -17.526  32.247  48.790  0.00  0.00    +0.295 HD
ENDBRANCH  10  12
ENDBRANCH   9  10
ENDBRANCH   7   8
BRANCH   4  14
ATOM     14  O   LIG    1      -13.559  27.190  42.085  0.00  0.00    -0.503 OA
ATOM     15  H   LIG    1      -13.314  27.896  41.461  0.00  0.00    +0.292 HD
ENDBRANCH   4  14
TORSDOF 5
ENDMDL
MODEL 5
REMARK VINA RESULT:      -5.2     25.289     26.362
REMARK  Name = 445858
REMARK                            x       y       z     vdW  Elec       q    Type
REMARK                         _______ _______ _______ _____ _____    ______ ____
ROOT
ATOM      3  C   LIG    1      -14.819  28.728  42.817  0.00  0.00    +0.162 A 
ATOM      4  C   LIG    1      -14.152  27.528  43.063  0.00  0.00    +0.158 A 
ATOM      5  C   LIG    1      -14.224  26.937  44.324  0.00  0.00    +0.050 A 
ATOM      6  C   LIG    1      -14.964  27.544  45.338  0.00  0.00    +0.012 A 
ATOM      7  C   LIG    1      -15.631  28.743  45.092  0.00  0.00    -0.021 A 
ATOM     16  C   LIG    1      -15.560  29.336  43.832  0.00  0.00    +0.057 A 
ENDROOT
BRANCH   3   1
ATOM      1  O   LIG    1      -14.755  29.317  41.589  0.00  0.00    -0.491 OA
ATOM      2  C   LIG    1      -15.795  29.002  40.665  0.00  0.00    +0.277 C 
ENDBRANCH   3   1
BRANCH   7   8
ATOM      8  C   LIG    1      -16.404  29.376  46.149  0.00  0.00    +0.015 C 
ATOM      9  C   LIG    1      -17.292  30.380  45.976  0.00  0.00    +0.092 C 
BRANCH   9  10
ATOM     10  C   LIG    1      -18.022  30.932  47.134  0.00  0.00    +0.330 C 
ATOM     11  O   LIG    1      -19.123  30.585  47.529  0.00  0.00    -0.246 OA
BRANCH  10  12
ATOM     12  O   LIG    1      -17.266  31.900  47.703  0.00  0.00    -0.478 OA
ATOM     13  H   LIG    1      -16.696  32.353  47.046  0.00  0.00    +0.295 HD
ENDBRANCH  10  12
ENDBRANCH   9  10
ENDBRANCH   7   8
BRANCH   4  14
ATOM     14  O   LIG    1      -13.425  26.926  42.081  0.00  0.00    -0.503 OA
ATOM     15  H   LIG    1      -12.891  27.599  41.624  0.00  0.00    +0.292 HD
ENDBRANCH   4  14
TORSDOF 5
ENDMDL
MODEL 6
REMARK VINA RESULT:      -5.1     24.598     27.026
REMARK  Name = 445858
REMARK                            x       y       z     vdW  Elec       q    Type
REMARK                         _______ _______ _______ _____ _____    ______ ____
ROOT
ATOM      3  C   LIG    1      -15.048  27.484  45.831  0.00  0.00    +0.162 A 
ATOM      4  C   LIG    1      -15.780  28.464  46.501  0.00  0.00    +0.158 A 
ATOM      5  C   LIG    1      -16.275  29.565  45.802  0.00  0.00    +0.050 A 
ATOM      6  C   LIG    1      -16.038  29.686  44.433  0.00  0.00    +0.012 A 
ATOM      7  C   LIG    1      -15.306  28.707  43.763  0.00  0.00    -0.021 A 
ATOM     16  C   LIG    1      -14.810  27.606  44.462  0.00  0.00    +0.057 A 
ENDROOT
BRANCH   3   1
ATOM      1  O   LIG    1      -14.558  26.405  46.504  0.00  0.00    -0.491 OA
ATOM      2  C   LIG    1      -13.657  25.556  45.796  0.00  0.00    +0.277 C 
ENDBRANCH   3   1
BRANCH   7   8
ATOM      8  C   LIG    1      -15.059  28.833  42.336  0.00  0.00    +0.015 C 
ATOM      9  C   LIG    1      -15.979  28.643  41.363  0.00  0.00    +0.092 C 
BRANCH   9  10
ATOM     10  C   LIG    1      -15.603  28.811  39.946  0.00  0.00    +0.330 C 
ATOM     11  O   LIG    1      -15.915  29.740  39.218  0.00  0.00    -0.246 OA
BRANCH  10  12
ATOM     12  O   LIG    1      -14.843  27.756  39.569  0.00  0.00    -0.478 OA
ATOM     13  H   LIG    1      -14.986  26.976  40.147  0.00  0.00    +0.295 HD
ENDBRANCH  10  12
ENDBRANCH   9  10
ENDBRANCH   7   8
BRANCH   4  14
ATOM     14  O   LIG    1      -16.018  28.358  47.839  0.00  0.00    -0.503 OA
ATOM     15  H   LIG    1      -16.839  27.853  47.975  0.00  0.00    +0.292 HD
ENDBRANCH   4  14
TORSDOF 5
ENDMDL
MODEL 7
REMARK VINA RESULT:      -5.0      2.244      3.255
REMARK  Name = 445858
REMARK                            x       y       z     vdW  Elec       q    Type
REMARK                         _______ _______ _______ _____ _____    ______ ____
ROOT
ATOM      3  C   LIG    1        1.388  30.748  62.991  0.00  0.00    +0.162 A 
ATOM      4  C   LIG    1        1.249  31.935  62.270  0.00  0.00    +0.158 A 
ATOM      5  C   LIG    1        2.229  32.922  62.359  0.00  0.00    +0.050 A 
ATOM      6  C   LIG    1        3.349  32.724  63.168  0.00  0.00    +0.012 A 
ATOM      7  C   LIG    1        3.487  31.539  63.888  0.00  0.00    -0.021 A 
ATOM     16  C   LIG    1        2.507  30.550  63.800  0.00  0.00    +0.057 A 
ENDROOT
BRANCH   3   1
ATOM      1  O   LIG    1        0.436  29.776  62.913  0.00  0.00    -0.491 OA
ATOM      2  C   LIG    1       -0.114  29.308  64.143  0.00  0.00    +0.277 C 
ENDBRANCH   3   1
BRANCH   7   8
ATOM      8  C   LIG    1        4.654  31.332  64.731  0.00  0.00    +0.015 C 
ATOM      9  C   LIG    1        4.626  31.111  66.064  0.00  0.00    +0.092 C 
BRANCH   9  10
ATOM     10  C   LIG    1        5.885  30.905  66.807  0.00  0.00    +0.330 C 
ATOM     11  O   LIG    1        6.059  31.081  68.002  0.00  0.00    -0.246 OA
BRANCH  10  12
ATOM     12  O   LIG    1        6.836  30.480  65.942  0.00  0.00    -0.478 OA
ATOM     13  H   LIG    1        7.661  31.005  66.016  0.00  0.00    +0.295 HD
ENDBRANCH  10  12
ENDBRANCH   9  10
ENDBRANCH   7   8
BRANCH   4  14
ATOM     14  O   LIG    1        0.161  32.140  61.477  0.00  0.00    -0.503 OA
ATOM     15  H   LIG    1        0.431  32.650  60.694  0.00  0.00    +0.292 HD
ENDBRANCH   4  14
TORSDOF 5
ENDMDL
MODEL 8
REMARK VINA RESULT:      -5.0     20.017     21.392
REMARK  Name = 445858
REMARK                            x       y       z     vdW  Elec       q    Type
REMARK                         _______ _______ _______ _____ _____    ______ ____
ROOT
ATOM      3  C   LIG    1       -7.798  17.034  51.808  0.00  0.00    +0.162 A 
ATOM      4  C   LIG    1       -6.732  16.695  52.642  0.00  0.00    +0.158 A 
ATOM      5  C   LIG    1       -6.709  17.146  53.961  0.00  0.00    +0.050 A 
ATOM      6  C   LIG    1       -7.751  17.937  54.447  0.00  0.00    +0.012 A 
ATOM      7  C   LIG    1       -8.815  18.276  53.613  0.00  0.00    -0.021 A 
ATOM     16  C   LIG    1       -8.840  17.825  52.293  0.00  0.00    +0.057 A 
ENDROOT
BRANCH   3   1
ATOM      1  O   LIG    1       -7.832  16.600  50.516  0.00  0.00    -0.491 OA
ATOM      2  C   LIG    1       -8.664  15.476  50.233  0.00  0.00    +0.277 C 
ENDBRANCH   3   1
BRANCH   7   8
ATOM      8  C   LIG    1       -9.902  19.099  54.120  0.00  0.00    +0.015 C 
ATOM      9  C   LIG    1      -10.920  19.592  53.380  0.00  0.00    +0.092 C 
BRANCH   9  10
ATOM     10  C   LIG    1      -11.971  20.410  54.018  0.00  0.00    +0.330 C 
ATOM     11  O   LIG    1      -12.994  19.997  54.540  0.00  0.00    -0.246 OA
BRANCH  10  12
ATOM     12  O   LIG    1      -11.617  21.714  53.934  0.00  0.00    -0.478 OA
ATOM     13  H   LIG    1      -10.836  21.919  54.491  0.00  0.00    +0.295 HD
ENDBRANCH  10  12
ENDBRANCH   9  10
ENDBRANCH   7   8
BRANCH   4  14
ATOM     14  O   LIG    1       -5.709  15.924  52.179  0.00  0.00    -0.503 OA
ATOM     15  H   LIG    1       -5.454  16.235  51.292  0.00  0.00    +0.292 HD
ENDBRANCH   4  14
TORSDOF 5
ENDMDL
MODEL 9
REMARK VINA RESULT:      -4.9      2.444      3.476
REMARK  Name = 445858
REMARK                            x       y       z     vdW  Elec       q    Type
REMARK                         _______ _______ _______ _____ _____    ______ ____
ROOT
ATOM      3  C   LIG    1       -1.575  32.819  62.379  0.00  0.00    +0.162 A 
ATOM      4  C   LIG    1       -1.781  33.772  61.380  0.00  0.00    +0.158 A 
ATOM      5  C   LIG    1       -0.690  34.367  60.749  0.00  0.00    +0.050 A 
ATOM      6  C   LIG    1        0.608  34.011  61.115  0.00  0.00    +0.012 A 
ATOM      7  C   LIG    1        0.814  33.059  62.113  0.00  0.00    -0.021 A 
ATOM     16  C   LIG    1       -0.277  32.463  62.745  0.00  0.00    +0.057 A 
ENDROOT
BRANCH   3   1
ATOM      1  O   LIG    1       -2.634  32.232  63.003  0.00  0.00    -0.491 OA
ATOM      2  C   LIG    1       -2.888  32.622  64.351  0.00  0.00    +0.277 C 
ENDBRANCH   3   1
BRANCH   7   8
ATOM      8  C   LIG    1        2.167  32.687  62.495  0.00  0.00    +0.015 C 
ATOM      9  C   LIG    1        2.605  32.524  63.763  0.00  0.00    +0.092 C 
BRANCH   9  10
ATOM     10  C   LIG    1        4.006  32.133  64.019  0.00  0.00    +0.330 C 
ATOM     11  O   LIG    1        4.385  31.222  64.736  0.00  0.00    -0.246 OA
BRANCH  10  12
ATOM     12  O   LIG    1        4.821  32.957  63.320  0.00  0.00    -0.478 OA
ATOM     13  H   LIG    1        4.373  33.795  63.074  0.00  0.00    +0.295 HD
ENDBRANCH  10  12
ENDBRANCH   9  10
ENDBRANCH   7   8
BRANCH   4  14
ATOM     14  O   LIG    1       -3.044  34.129  61.014  0.00  0.00    -0.503 OA
ATOM     15  H   LIG    1       -3.260  33.704  60.166  0.00  0.00    +0.292 HD
ENDBRANCH   4  14
TORSDOF 5
ENDMDL
