MODEL 1
REMARK VINA RESULT:      -7.4      0.000      0.000
REMARK  Name = 9823887
REMARK                            x       y       z     vdW  Elec       q    Type
REMARK                         _______ _______ _______ _____ _____    ______ ____
ROOT
ATOM      1  O   LIG    1       -0.940  32.010  62.853  0.00  0.00    -0.341 OA
ATOM      2  C   LIG    1       -2.010  32.467  62.030  0.00  0.00    +0.282 C 
ATOM      3  C   LIG    1       -1.721  33.877  61.512  0.00  0.00    +0.201 C 
ATOM      4  C   LIG    1       -0.365  33.947  60.813  0.00  0.00    +0.179 C 
ATOM      5  C   LIG    1        0.730  33.301  61.662  0.00  0.00    +0.177 C 
ATOM     22  C   LIG    1        0.297  31.914  62.144  0.00  0.00    +0.178 C 
ENDROOT
BRANCH   5   6
ATOM      6  O   LIG    1        1.919  33.180  60.886  0.00  0.00    -0.386 OA
ATOM      7  H   LIG    1        2.551  32.636  61.388  0.00  0.00    +0.210 HD
ENDBRANCH   5   6
BRANCH   4   8
ATOM      8  O   LIG    1       -0.009  35.314  60.599  0.00  0.00    -0.386 OA
ATOM      9  H   LIG    1        0.932  35.335  60.355  0.00  0.00    +0.210 HD
ENDBRANCH   4   8
BRANCH   3  10
ATOM     10  O   LIG    1       -2.750  34.233  60.589  0.00  0.00    -0.384 OA
ATOM     11  H   LIG    1       -2.598  35.151  60.308  0.00  0.00    +0.210 HD
ENDBRANCH   3  10
BRANCH   2  12
ATOM     12  O   LIG    1       -3.216  32.515  62.789  0.00  0.00    -0.345 OA
BRANCH  12  13
ATOM     13  C   LIG    1       -4.040  31.391  62.521  0.00  0.00    +0.190 C 
BRANCH  13  14
ATOM     14  C   LIG    1       -5.260  31.852  61.791  0.00  0.00    +0.001 C 
ATOM     15  C   LIG    1       -6.199  31.015  61.322  0.00  0.00    +0.006 C 
BRANCH  15  16
ATOM     16  C   LIG    1       -7.422  31.424  60.611  0.00  0.00    -0.025 A 
ATOM     17  C   LIG    1       -8.332  32.254  61.246  0.00  0.00    +0.008 A 
ATOM     18  C   LIG    1       -9.490  32.640  60.572  0.00  0.00    +0.001 A 
ATOM     19  C   LIG    1       -9.724  32.191  59.272  0.00  0.00    +0.000 A 
ATOM     20  C   LIG    1       -8.800  31.356  58.646  0.00  0.00    +0.001 A 
ATOM     21  C   LIG    1       -7.641  30.970  59.320  0.00  0.00    +0.008 A 
ENDBRANCH  15  16
ENDBRANCH  13  14
ENDBRANCH  12  13
ENDBRANCH   2  12
BRANCH  22  23
ATOM     23  C   LIG    1        1.324  31.298  63.089  0.00  0.00    +0.197 C 
BRANCH  23  24
ATOM     24  O   LIG    1        2.035  32.344  63.726  0.00  0.00    -0.346 OA
BRANCH  24  25
ATOM     25  C   LIG    1        2.406  31.997  65.056  0.00  0.00    +0.281 C 
ATOM     26  C   LIG    1        3.789  31.327  65.054  0.00  0.00    +0.201 C 
ATOM     27  C   LIG    1        4.918  32.337  64.823  0.00  0.00    +0.178 C 
ATOM     28  C   LIG    1        4.753  33.536  65.757  0.00  0.00    +0.171 C 
ATOM     29  C   LIG    1        3.350  34.118  65.641  0.00  0.00    +0.197 C 
ATOM     36  O   LIG    1        2.368  33.126  65.935  0.00  0.00    -0.346 OA
BRANCH  28  30
ATOM     30  O   LIG    1        5.726  34.525  65.451  0.00  0.00    -0.387 OA
ATOM     31  H   LIG    1        6.553  34.064  65.228  0.00  0.00    +0.210 HD
ENDBRANCH  28  30
BRANCH  27  32
ATOM     32  O   LIG    1        4.887  32.786  63.469  0.00  0.00    -0.386 OA
ATOM     33  H   LIG    1        4.564  32.049  62.923  0.00  0.00    +0.210 HD
ENDBRANCH  27  32
BRANCH  26  34
ATOM     34  O   LIG    1        3.973  30.695  66.319  0.00  0.00    -0.384 OA
ATOM     35  H   LIG    1        4.809  30.200  66.296  0.00  0.00    +0.210 HD
ENDBRANCH  26  34
ENDBRANCH  24  25
ENDBRANCH  23  24
ENDBRANCH  22  23
TORSDOF 13
ENDMDL
MODEL 2
REMARK VINA RESULT:      -7.1      3.882     11.477
REMARK  Name = 9823887
REMARK                            x       y       z     vdW  Elec       q    Type
REMARK                         _______ _______ _______ _____ _____    ______ ____
ROOT
ATOM      1  O   LIG    1        3.548  30.962  65.822  0.00  0.00    -0.341 OA
ATOM      2  C   LIG    1        3.793  31.564  67.091  0.00  0.00    +0.282 C 
ATOM      3  C   LIG    1        4.952  32.556  66.998  0.00  0.00    +0.201 C 
ATOM      4  C   LIG    1        4.718  33.584  65.891  0.00  0.00    +0.179 C 
ATOM      5  C   LIG    1        4.301  32.907  64.586  0.00  0.00    +0.177 C 
ATOM     22  C   LIG    1        3.162  31.914  64.829  0.00  0.00    +0.178 C 
ENDROOT
BRANCH   5   6
ATOM      6  O   LIG    1        3.872  33.898  63.656  0.00  0.00    -0.386 OA
ATOM      7  H   LIG    1        3.475  33.442  62.894  0.00  0.00    +0.210 HD
ENDBRANCH   5   6
BRANCH   4   8
ATOM      8  O   LIG    1        5.927  34.305  65.648  0.00  0.00    -0.386 OA
ATOM      9  H   LIG    1        6.305  34.539  66.513  0.00  0.00    +0.210 HD
ENDBRANCH   4   8
BRANCH   3  10
ATOM     10  O   LIG    1        5.067  33.228  68.252  0.00  0.00    -0.384 OA
ATOM     11  H   LIG    1        5.954  33.621  68.304  0.00  0.00    +0.210 HD
ENDBRANCH   3  10
BRANCH   2  12
ATOM     12  O   LIG    1        4.147  30.560  68.040  0.00  0.00    -0.345 OA
BRANCH  12  13
ATOM     13  C   LIG    1        4.600  29.379  67.399  0.00  0.00    +0.190 C 
BRANCH  13  14
ATOM     14  C   LIG    1        6.035  29.158  67.753  0.00  0.00    +0.001 C 
ATOM     15  C   LIG    1        6.505  29.236  69.008  0.00  0.00    +0.006 C 
BRANCH  15  16
ATOM     16  C   LIG    1        7.905  29.012  69.407  0.00  0.00    -0.025 A 
ATOM     17  C   LIG    1        8.256  27.816  70.013  0.00  0.00    +0.008 A 
ATOM     18  C   LIG    1        9.582  27.605  70.390  0.00  0.00    +0.001 A 
ATOM     19  C   LIG    1       10.540  28.592  70.157  0.00  0.00    +0.000 A 
ATOM     20  C   LIG    1       10.172  29.790  69.546  0.00  0.00    +0.001 A 
ATOM     21  C   LIG    1        8.845  30.001  69.168  0.00  0.00    +0.008 A 
ENDBRANCH  15  16
ENDBRANCH  13  14
ENDBRANCH  12  13
ENDBRANCH   2  12
BRANCH  22  23
ATOM     23  C   LIG    1        2.807  31.140  63.563  0.00  0.00    +0.197 C 
BRANCH  23  24
ATOM     24  O   LIG    1        1.397  31.024  63.486  0.00  0.00    -0.346 OA
BRANCH  24  25
ATOM     25  C   LIG    1        0.769  32.294  63.350  0.00  0.00    +0.281 C 
ATOM     26  C   LIG    1        0.938  32.810  61.912  0.00  0.00    +0.201 C 
ATOM     27  C   LIG    1        0.031  32.067  60.924  0.00  0.00    +0.178 C 
ATOM     28  C   LIG    1       -1.401  32.019  61.458  0.00  0.00    +0.171 C 
ATOM     29  C   LIG    1       -1.427  31.467  62.878  0.00  0.00    +0.197 C 
ATOM     36  O   LIG    1       -0.608  32.256  63.738  0.00  0.00    -0.346 OA
BRANCH  28  30
ATOM     30  O   LIG    1       -2.208  31.222  60.602  0.00  0.00    -0.387 OA
ATOM     31  H   LIG    1       -1.997  31.469  59.685  0.00  0.00    +0.210 HD
ENDBRANCH  28  30
BRANCH  27  32
ATOM     32  O   LIG    1        0.512  30.737  60.742  0.00  0.00    -0.386 OA
ATOM     33  H   LIG    1        1.190  30.575  61.421  0.00  0.00    +0.210 HD
ENDBRANCH  27  32
BRANCH  26  34
ATOM     34  O   LIG    1        0.612  34.197  61.900  0.00  0.00    -0.384 OA
ATOM     35  H   LIG    1        0.310  34.435  61.008  0.00  0.00    +0.210 HD
ENDBRANCH  26  34
ENDBRANCH  24  25
ENDBRANCH  23  24
ENDBRANCH  22  23
TORSDOF 13
ENDMDL
MODEL 3
REMARK VINA RESULT:      -7.0      3.950     11.792
REMARK  Name = 9823887
REMARK                            x       y       z     vdW  Elec       q    Type
REMARK                         _______ _______ _______ _____ _____    ______ ____
ROOT
ATOM      1  O   LIG    1        3.764  31.188  66.196  0.00  0.00    -0.341 OA
ATOM      2  C   LIG    1        4.248  31.800  67.389  0.00  0.00    +0.282 C 
ATOM      3  C   LIG    1        5.375  32.782  67.066  0.00  0.00    +0.201 C 
ATOM      4  C   LIG    1        4.943  33.800  66.012  0.00  0.00    +0.179 C 
ATOM      5  C   LIG    1        4.282  33.113  64.817  0.00  0.00    +0.177 C 
ATOM     22  C   LIG    1        3.203  32.132  65.283  0.00  0.00    +0.178 C 
ENDROOT
BRANCH   5   6
ATOM      6  O   LIG    1        3.692  34.098  63.973  0.00  0.00    -0.386 OA
ATOM      7  H   LIG    1        2.808  34.303  64.325  0.00  0.00    +0.210 HD
ENDBRANCH   5   6
BRANCH   4   8
ATOM      8  O   LIG    1        6.088  34.508  65.536  0.00  0.00    -0.386 OA
ATOM      9  H   LIG    1        6.201  35.292  66.100  0.00  0.00    +0.210 HD
ENDBRANCH   4   8
BRANCH   3  10
ATOM     10  O   LIG    1        5.730  33.465  68.268  0.00  0.00    -0.384 OA
ATOM     11  H   LIG    1        6.565  33.089  68.594  0.00  0.00    +0.210 HD
ENDBRANCH   3  10
BRANCH   2  12
ATOM     12  O   LIG    1        4.769  30.803  68.265  0.00  0.00    -0.345 OA
BRANCH  12  13
ATOM     13  C   LIG    1        5.264  29.687  67.543  0.00  0.00    +0.190 C 
BRANCH  13  14
ATOM     14  C   LIG    1        6.727  29.545  67.818  0.00  0.00    +0.001 C 
ATOM     15  C   LIG    1        7.253  29.596  69.051  0.00  0.00    +0.006 C 
BRANCH  15  16
ATOM     16  C   LIG    1        8.684  29.447  69.370  0.00  0.00    -0.025 A 
ATOM     17  C   LIG    1        9.516  30.552  69.290  0.00  0.00    +0.008 A 
ATOM     18  C   LIG    1       10.870  30.410  69.592  0.00  0.00    +0.001 A 
ATOM     19  C   LIG    1       11.375  29.166  69.970  0.00  0.00    +0.000 A 
ATOM     20  C   LIG    1       10.525  28.063  70.046  0.00  0.00    +0.001 A 
ATOM     21  C   LIG    1        9.170  28.205  69.744  0.00  0.00    +0.008 A 
ENDBRANCH  15  16
ENDBRANCH  13  14
ENDBRANCH  12  13
ENDBRANCH   2  12
BRANCH  22  23
ATOM     23  C   LIG    1        2.610  31.349  64.116  0.00  0.00    +0.197 C 
BRANCH  23  24
ATOM     24  O   LIG    1        1.555  32.108  63.553  0.00  0.00    -0.346 OA
BRANCH  24  25
ATOM     25  C   LIG    1        1.260  31.697  62.222  0.00  0.00    +0.281 C 
ATOM     26  C   LIG    1       -0.212  31.270  62.121  0.00  0.00    +0.201 C 
ATOM     27  C   LIG    1       -1.163  32.472  62.141  0.00  0.00    +0.178 C 
ATOM     28  C   LIG    1       -0.698  33.528  61.137  0.00  0.00    +0.171 C 
ATOM     29  C   LIG    1        0.767  33.876  61.364  0.00  0.00    +0.197 C 
ATOM     36  O   LIG    1        1.582  32.711  61.264  0.00  0.00    -0.346 OA
BRANCH  28  30
ATOM     30  O   LIG    1       -1.508  34.690  61.250  0.00  0.00    -0.387 OA
ATOM     31  H   LIG    1       -1.989  34.632  62.093  0.00  0.00    +0.210 HD
ENDBRANCH  28  30
BRANCH  27  32
ATOM     32  O   LIG    1       -1.185  33.042  63.448  0.00  0.00    -0.386 OA
ATOM     33  H   LIG    1       -1.113  34.007  63.348  0.00  0.00    +0.210 HD
ENDBRANCH  27  32
BRANCH  26  34
ATOM     34  O   LIG    1       -0.381  30.555  60.900  0.00  0.00    -0.384 OA
ATOM     35  H   LIG    1        0.253  30.901  60.250  0.00  0.00    +0.210 HD
ENDBRANCH  26  34
ENDBRANCH  24  25
ENDBRANCH  23  24
ENDBRANCH  22  23
TORSDOF 13
ENDMDL
MODEL 4
REMARK VINA RESULT:      -6.9      3.787      5.865
REMARK  Name = 9823887
REMARK                            x       y       z     vdW  Elec       q    Type
REMARK                         _______ _______ _______ _____ _____    ______ ____
ROOT
ATOM      1  O   LIG    1        0.452  31.191  62.052  0.00  0.00    -0.341 OA
ATOM      2  C   LIG    1       -0.547  30.519  61.287  0.00  0.00    +0.282 C 
ATOM      3  C   LIG    1       -1.804  31.382  61.172  0.00  0.00    +0.201 C 
ATOM      4  C   LIG    1       -1.477  32.772  60.629  0.00  0.00    +0.179 C 
ATOM      5  C   LIG    1       -0.296  33.394  61.372  0.00  0.00    +0.177 C 
ATOM     22  C   LIG    1        0.877  32.413  61.446  0.00  0.00    +0.178 C 
ENDROOT
BRANCH   5   6
ATOM      6  O   LIG    1        0.121  34.576  60.692  0.00  0.00    -0.386 OA
ATOM      7  H   LIG    1        0.246  34.353  59.753  0.00  0.00    +0.210 HD
ENDBRANCH   5   6
BRANCH   4   8
ATOM      8  O   LIG    1       -2.608  33.629  60.801  0.00  0.00    -0.386 OA
ATOM      9  H   LIG    1       -2.604  34.267  60.068  0.00  0.00    +0.210 HD
ENDBRANCH   4   8
BRANCH   3  10
ATOM     10  O   LIG    1       -2.715  30.729  60.289  0.00  0.00    -0.384 OA
ATOM     11  H   LIG    1       -2.931  31.345  59.569  0.00  0.00    +0.210 HD
ENDBRANCH   3  10
BRANCH   2  12
ATOM     12  O   LIG    1       -0.907  29.299  61.930  0.00  0.00    -0.345 OA
BRANCH  12  13
ATOM     13  C   LIG    1       -1.354  29.526  63.257  0.00  0.00    +0.190 C 
BRANCH  13  14
ATOM     14  C   LIG    1       -1.766  28.221  63.858  0.00  0.00    +0.001 C 
ATOM     15  C   LIG    1       -1.059  27.591  64.809  0.00  0.00    +0.006 C 
BRANCH  15  16
ATOM     16  C   LIG    1       -1.433  26.313  65.439  0.00  0.00    -0.025 A 
ATOM     17  C   LIG    1       -2.594  26.240  66.192  0.00  0.00    +0.008 A 
ATOM     18  C   LIG    1       -2.947  25.030  66.787  0.00  0.00    +0.001 A 
ATOM     19  C   LIG    1       -2.134  23.908  66.624  0.00  0.00    +0.000 A 
ATOM     20  C   LIG    1       -0.969  23.996  65.864  0.00  0.00    +0.001 A 
ATOM     21  C   LIG    1       -0.615  25.207  65.267  0.00  0.00    +0.008 A 
ENDBRANCH  15  16
ENDBRANCH  13  14
ENDBRANCH  12  13
ENDBRANCH   2  12
BRANCH  22  23
ATOM     23  C   LIG    1        2.025  32.967  62.284  0.00  0.00    +0.197 C 
BRANCH  23  24
ATOM     24  O   LIG    1        2.308  32.048  63.324  0.00  0.00    -0.346 OA
BRANCH  24  25
ATOM     25  C   LIG    1        3.630  32.212  63.828  0.00  0.00    +0.281 C 
ATOM     26  C   LIG    1        3.737  33.537  64.597  0.00  0.00    +0.201 C 
ATOM     27  C   LIG    1        3.044  33.469  65.962  0.00  0.00    +0.178 C 
ATOM     28  C   LIG    1        3.490  32.216  66.717  0.00  0.00    +0.171 C 
ATOM     29  C   LIG    1        3.308  30.975  65.852  0.00  0.00    +0.197 C 
ATOM     36  O   LIG    1        4.038  31.101  64.634  0.00  0.00    -0.346 OA
BRANCH  28  30
ATOM     30  O   LIG    1        2.751  32.091  67.924  0.00  0.00    -0.387 OA
ATOM     31  H   LIG    1        1.918  32.581  67.811  0.00  0.00    +0.210 HD
ENDBRANCH  28  30
BRANCH  27  32
ATOM     32  O   LIG    1        1.630  33.431  65.778  0.00  0.00    -0.386 OA
ATOM     33  H   LIG    1        1.219  33.483  66.659  0.00  0.00    +0.210 HD
ENDBRANCH  27  32
BRANCH  26  34
ATOM     34  O   LIG    1        5.120  33.829  64.783  0.00  0.00    -0.384 OA
ATOM     35  H   LIG    1        5.310  34.690  64.375  0.00  0.00    +0.210 HD
ENDBRANCH  26  34
ENDBRANCH  24  25
ENDBRANCH  23  24
ENDBRANCH  22  23
TORSDOF 13
ENDMDL
MODEL 5
REMARK VINA RESULT:      -6.9      1.884      2.558
REMARK  Name = 9823887
REMARK                            x       y       z     vdW  Elec       q    Type
REMARK                         _______ _______ _______ _____ _____    ______ ____
ROOT
ATOM      1  O   LIG    1       -2.144  31.424  63.720  0.00  0.00    -0.341 OA
ATOM      2  C   LIG    1       -2.917  31.003  62.599  0.00  0.00    +0.282 C 
ATOM      3  C   LIG    1       -2.033  30.862  61.360  0.00  0.00    +0.201 C 
ATOM      4  C   LIG    1       -0.837  29.951  61.630  0.00  0.00    +0.179 C 
ATOM      5  C   LIG    1       -0.127  30.337  62.927  0.00  0.00    +0.177 C 
ATOM     22  C   LIG    1       -1.131  30.481  64.074  0.00  0.00    +0.178 C 
ENDROOT
BRANCH   5   6
ATOM      6  O   LIG    1        0.828  29.334  63.260  0.00  0.00    -0.386 OA
ATOM      7  H   LIG    1        1.023  28.826  62.453  0.00  0.00    +0.210 HD
ENDBRANCH   5   6
BRANCH   4   8
ATOM      8  O   LIG    1        0.103  30.069  60.560  0.00  0.00    -0.386 OA
ATOM      9  H   LIG    1       -0.189  30.805  59.997  0.00  0.00    +0.210 HD
ENDBRANCH   4   8
BRANCH   3  10
ATOM     10  O   LIG    1       -2.822  30.310  60.307  0.00  0.00    -0.384 OA
ATOM     11  H   LIG    1       -2.295  29.626  59.862  0.00  0.00    +0.210 HD
ENDBRANCH   3  10
BRANCH   2  12
ATOM     12  O   LIG    1       -3.923  31.973  62.315  0.00  0.00    -0.345 OA
BRANCH  12  13
ATOM     13  C   LIG    1       -5.214  31.496  62.659  0.00  0.00    +0.190 C 
BRANCH  13  14
ATOM     14  C   LIG    1       -6.064  31.476  61.429  0.00  0.00    +0.001 C 
ATOM     15  C   LIG    1       -7.370  31.784  61.431  0.00  0.00    +0.006 C 
BRANCH  15  16
ATOM     16  C   LIG    1       -8.242  31.793  60.244  0.00  0.00    -0.025 A 
ATOM     17  C   LIG    1       -9.425  32.514  60.275  0.00  0.00    +0.008 A 
ATOM     18  C   LIG    1      -10.250  32.522  59.151  0.00  0.00    +0.001 A 
ATOM     19  C   LIG    1       -9.883  31.808  58.011  0.00  0.00    +0.000 A 
ATOM     20  C   LIG    1       -8.690  31.086  57.994  0.00  0.00    +0.001 A 
ATOM     21  C   LIG    1       -7.865  31.078  59.119  0.00  0.00    +0.008 A 
ENDBRANCH  15  16
ENDBRANCH  13  14
ENDBRANCH  12  13
ENDBRANCH   2  12
BRANCH  22  23
ATOM     23  C   LIG    1       -0.463  30.980  65.351  0.00  0.00    +0.197 C 
BRANCH  23  24
ATOM     24  O   LIG    1        0.896  31.261  65.068  0.00  0.00    -0.346 OA
BRANCH  24  25
ATOM     25  C   LIG    1        1.201  32.639  65.258  0.00  0.00    +0.281 C 
ATOM     26  C   LIG    1        2.407  32.783  66.198  0.00  0.00    +0.201 C 
ATOM     27  C   LIG    1        3.724  32.413  65.507  0.00  0.00    +0.178 C 
ATOM     28  C   LIG    1        3.831  33.130  64.161  0.00  0.00    +0.171 C 
ATOM     29  C   LIG    1        2.584  32.885  63.321  0.00  0.00    +0.197 C 
ATOM     36  O   LIG    1        1.417  33.317  64.016  0.00  0.00    -0.346 OA
BRANCH  28  30
ATOM     30  O   LIG    1        4.990  32.687  63.469  0.00  0.00    -0.387 OA
ATOM     31  H   LIG    1        5.685  32.527  64.131  0.00  0.00    +0.210 HD
ENDBRANCH  28  30
BRANCH  27  32
ATOM     32  O   LIG    1        3.773  31.003  65.295  0.00  0.00    -0.386 OA
ATOM     33  H   LIG    1        2.856  30.682  65.252  0.00  0.00    +0.210 HD
ENDBRANCH  27  32
BRANCH  26  34
ATOM     34  O   LIG    1        2.467  34.139  66.634  0.00  0.00    -0.384 OA
ATOM     35  H   LIG    1        1.739  34.294  67.258  0.00  0.00    +0.210 HD
ENDBRANCH  26  34
ENDBRANCH  24  25
ENDBRANCH  23  24
ENDBRANCH  22  23
TORSDOF 13
ENDMDL
MODEL 6
REMARK VINA RESULT:      -6.8      1.767      2.475
REMARK  Name = 9823887
REMARK                            x       y       z     vdW  Elec       q    Type
REMARK                         _______ _______ _______ _____ _____    ______ ____
ROOT
ATOM      1  O   LIG    1       -0.103  33.153  62.019  0.00  0.00    -0.341 OA
ATOM      2  C   LIG    1       -1.472  32.761  62.084  0.00  0.00    +0.282 C 
ATOM      3  C   LIG    1       -1.722  31.541  61.197  0.00  0.00    +0.201 C 
ATOM      4  C   LIG    1       -0.763  30.401  61.535  0.00  0.00    +0.179 C 
ATOM      5  C   LIG    1        0.680  30.895  61.613  0.00  0.00    +0.177 C 
ATOM     22  C   LIG    1        0.782  32.139  62.499  0.00  0.00    +0.178 C 
ENDROOT
BRANCH   5   6
ATOM      6  O   LIG    1        1.505  29.865  62.151  0.00  0.00    -0.386 OA
ATOM      7  H   LIG    1        1.140  29.610  63.016  0.00  0.00    +0.210 HD
ENDBRANCH   5   6
BRANCH   4   8
ATOM      8  O   LIG    1       -0.834  29.402  60.516  0.00  0.00    -0.386 OA
ATOM      9  H   LIG    1        0.017  28.931  60.511  0.00  0.00    +0.210 HD
ENDBRANCH   4   8
BRANCH   3  10
ATOM     10  O   LIG    1       -3.067  31.108  61.403  0.00  0.00    -0.384 OA
ATOM     11  H   LIG    1       -3.556  31.833  61.825  0.00  0.00    +0.210 HD
ENDBRANCH   3  10
BRANCH   2  12
ATOM     12  O   LIG    1       -2.300  33.824  61.617  0.00  0.00    -0.345 OA
BRANCH  12  13
ATOM     13  C   LIG    1       -3.108  34.347  62.660  0.00  0.00    +0.190 C 
BRANCH  13  14
ATOM     14  C   LIG    1       -4.537  34.322  62.221  0.00  0.00    +0.001 C 
ATOM     15  C   LIG    1       -5.466  33.533  62.782  0.00  0.00    +0.006 C 
BRANCH  15  16
ATOM     16  C   LIG    1       -6.886  33.485  62.393  0.00  0.00    -0.025 A 
ATOM     17  C   LIG    1       -7.686  34.596  62.607  0.00  0.00    +0.008 A 
ATOM     18  C   LIG    1       -9.030  34.550  62.239  0.00  0.00    +0.001 A 
ATOM     19  C   LIG    1       -9.558  33.395  61.663  0.00  0.00    +0.000 A 
ATOM     20  C   LIG    1       -8.741  32.284  61.454  0.00  0.00    +0.001 A 
ATOM     21  C   LIG    1       -7.396  32.330  61.822  0.00  0.00    +0.008 A 
ENDBRANCH  15  16
ENDBRANCH  13  14
ENDBRANCH  12  13
ENDBRANCH   2  12
BRANCH  22  23
ATOM     23  C   LIG    1        2.193  32.720  62.499  0.00  0.00    +0.197 C 
BRANCH  23  24
ATOM     24  O   LIG    1        2.953  32.059  63.493  0.00  0.00    -0.346 OA
BRANCH  24  25
ATOM     25  C   LIG    1        2.546  32.433  64.805  0.00  0.00    +0.281 C 
ATOM     26  C   LIG    1        3.137  31.458  65.834  0.00  0.00    +0.201 C 
ATOM     27  C   LIG    1        4.637  31.688  66.051  0.00  0.00    +0.178 C 
ATOM     28  C   LIG    1        4.911  33.173  66.296  0.00  0.00    +0.171 C 
ATOM     29  C   LIG    1        4.293  34.022  65.193  0.00  0.00    +0.197 C 
ATOM     36  O   LIG    1        2.889  33.790  65.107  0.00  0.00    -0.346 OA
BRANCH  28  30
ATOM     30  O   LIG    1        6.312  33.399  66.370  0.00  0.00    -0.387 OA
ATOM     31  H   LIG    1        6.702  32.666  66.878  0.00  0.00    +0.210 HD
ENDBRANCH  28  30
BRANCH  27  32
ATOM     32  O   LIG    1        5.358  31.259  64.897  0.00  0.00    -0.386 OA
ATOM     33  H   LIG    1        5.082  31.823  64.154  0.00  0.00    +0.210 HD
ENDBRANCH  27  32
BRANCH  26  34
ATOM     34  O   LIG    1        2.447  31.646  67.068  0.00  0.00    -0.384 OA
ATOM     35  H   LIG    1        1.960  32.485  67.022  0.00  0.00    +0.210 HD
ENDBRANCH  26  34
ENDBRANCH  24  25
ENDBRANCH  23  24
ENDBRANCH  22  23
TORSDOF 13
ENDMDL
MODEL 7
REMARK VINA RESULT:      -6.8      3.215      9.366
REMARK  Name = 9823887
REMARK                            x       y       z     vdW  Elec       q    Type
REMARK                         _______ _______ _______ _____ _____    ______ ____
ROOT
ATOM      1  O   LIG    1       -2.451  31.507  62.496  0.00  0.00    -0.341 OA
ATOM      2  C   LIG    1       -1.218  31.609  61.788  0.00  0.00    +0.282 C 
ATOM      3  C   LIG    1       -1.280  32.744  60.766  0.00  0.00    +0.201 C 
ATOM      4  C   LIG    1       -1.698  34.060  61.420  0.00  0.00    +0.179 C 
ATOM      5  C   LIG    1       -2.934  33.874  62.300  0.00  0.00    +0.177 C 
ATOM     22  C   LIG    1       -2.752  32.684  63.246  0.00  0.00    +0.178 C 
ENDROOT
BRANCH   5   6
ATOM      6  O   LIG    1       -3.151  35.056  63.065  0.00  0.00    -0.386 OA
ATOM      7  H   LIG    1       -3.065  34.824  64.006  0.00  0.00    +0.210 HD
ENDBRANCH   5   6
BRANCH   4   8
ATOM      8  O   LIG    1       -2.017  35.015  60.407  0.00  0.00    -0.386 OA
ATOM      9  H   LIG    1       -2.831  34.713  59.968  0.00  0.00    +0.210 HD
ENDBRANCH   4   8
BRANCH   3  10
ATOM     10  O   LIG    1        0.015  32.893  60.184  0.00  0.00    -0.384 OA
ATOM     11  H   LIG    1        0.046  33.755  59.735  0.00  0.00    +0.210 HD
ENDBRANCH   3  10
BRANCH   2  12
ATOM     12  O   LIG    1       -0.964  30.395  61.084  0.00  0.00    -0.345 OA
BRANCH  12  13
ATOM     13  C   LIG    1        0.065  29.642  61.705  0.00  0.00    +0.190 C 
BRANCH  13  14
ATOM     14  C   LIG    1        0.876  30.555  62.568  0.00  0.00    +0.001 C 
ATOM     15  C   LIG    1        2.081  30.227  63.060  0.00  0.00    +0.006 C 
BRANCH  15  16
ATOM     16  C   LIG    1        2.920  31.098  63.901  0.00  0.00    -0.025 A 
ATOM     17  C   LIG    1        3.305  30.661  65.159  0.00  0.00    +0.008 A 
ATOM     18  C   LIG    1        4.100  31.486  65.954  0.00  0.00    +0.001 A 
ATOM     19  C   LIG    1        4.499  32.737  65.482  0.00  0.00    +0.000 A 
ATOM     20  C   LIG    1        4.104  33.163  64.215  0.00  0.00    +0.001 A 
ATOM     21  C   LIG    1        3.308  32.338  63.419  0.00  0.00    +0.008 A 
ENDBRANCH  15  16
ENDBRANCH  13  14
ENDBRANCH  12  13
ENDBRANCH   2  12
BRANCH  22  23
ATOM     23  C   LIG    1       -4.017  32.406  64.053  0.00  0.00    +0.197 C 
BRANCH  23  24
ATOM     24  O   LIG    1       -5.141  32.619  63.217  0.00  0.00    -0.346 OA
BRANCH  24  25
ATOM     25  C   LIG    1       -6.364  32.481  63.932  0.00  0.00    +0.281 C 
ATOM     26  C   LIG    1       -6.663  33.770  64.712  0.00  0.00    +0.201 C 
ATOM     27  C   LIG    1       -7.132  34.904  63.793  0.00  0.00    +0.178 C 
ATOM     28  C   LIG    1       -8.242  34.406  62.866  0.00  0.00    +0.171 C 
ATOM     29  C   LIG    1       -7.806  33.140  62.139  0.00  0.00    +0.197 C 
ATOM     36  O   LIG    1       -7.451  32.122  63.071  0.00  0.00    -0.346 OA
BRANCH  28  30
ATOM     30  O   LIG    1       -8.584  35.421  61.934  0.00  0.00    -0.387 OA
ATOM     31  H   LIG    1       -8.582  35.020  61.048  0.00  0.00    +0.210 HD
ENDBRANCH  28  30
BRANCH  27  32
ATOM     32  O   LIG    1       -6.035  35.367  63.008  0.00  0.00    -0.386 OA
ATOM     33  H   LIG    1       -6.346  35.450  62.090  0.00  0.00    +0.210 HD
ENDBRANCH  27  32
BRANCH  26  34
ATOM     34  O   LIG    1       -7.683  33.482  65.665  0.00  0.00    -0.384 OA
ATOM     35  H   LIG    1       -8.141  32.671  65.390  0.00  0.00    +0.210 HD
ENDBRANCH  26  34
ENDBRANCH  24  25
ENDBRANCH  23  24
ENDBRANCH  22  23
TORSDOF 13
ENDMDL
MODEL 8
REMARK VINA RESULT:      -6.7      4.420      6.782
REMARK  Name = 9823887
REMARK                            x       y       z     vdW  Elec       q    Type
REMARK                         _______ _______ _______ _____ _____    ______ ____
ROOT
ATOM      1  O   LIG    1       -0.642  29.150  62.735  0.00  0.00    -0.341 OA
ATOM      2  C   LIG    1       -2.001  28.901  62.384  0.00  0.00    +0.282 C 
ATOM      3  C   LIG    1       -2.755  30.217  62.193  0.00  0.00    +0.201 C 
ATOM      4  C   LIG    1       -2.042  31.127  61.194  0.00  0.00    +0.179 C 
ATOM      5  C   LIG    1       -0.553  31.242  61.513  0.00  0.00    +0.177 C 
ATOM     22  C   LIG    1        0.067  29.857  61.716  0.00  0.00    +0.178 C 
ENDROOT
BRANCH   5   6
ATOM      6  O   LIG    1        0.111  31.902  60.438  0.00  0.00    -0.386 OA
ATOM      7  H   LIG    1        0.417  31.223  59.813  0.00  0.00    +0.210 HD
ENDBRANCH   5   6
BRANCH   4   8
ATOM      8  O   LIG    1       -2.609  32.437  61.255  0.00  0.00    -0.386 OA
ATOM      9  H   LIG    1       -1.895  33.053  61.493  0.00  0.00    +0.210 HD
ENDBRANCH   4   8
BRANCH   3  10
ATOM     10  O   LIG    1       -4.064  29.916  61.711  0.00  0.00    -0.384 OA
ATOM     11  H   LIG    1       -4.443  29.224  62.279  0.00  0.00    +0.210 HD
ENDBRANCH   3  10
BRANCH   2  12
ATOM     12  O   LIG    1       -2.643  28.172  63.428  0.00  0.00    -0.345 OA
BRANCH  12  13
ATOM     13  C   LIG    1       -2.149  28.552  64.702  0.00  0.00    +0.190 C 
BRANCH  13  14
ATOM     14  C   LIG    1       -1.863  27.317  65.495  0.00  0.00    +0.001 C 
ATOM     15  C   LIG    1       -1.013  26.361  65.090  0.00  0.00    +0.006 C 
BRANCH  15  16
ATOM     16  C   LIG    1       -0.690  25.137  65.843  0.00  0.00    -0.025 A 
ATOM     17  C   LIG    1        0.588  24.972  66.354  0.00  0.00    +0.008 A 
ATOM     18  C   LIG    1        0.893  23.813  67.067  0.00  0.00    +0.001 A 
ATOM     19  C   LIG    1       -0.081  22.834  67.259  0.00  0.00    +0.000 A 
ATOM     20  C   LIG    1       -1.362  23.014  66.739  0.00  0.00    +0.001 A 
ATOM     21  C   LIG    1       -1.668  24.173  66.026  0.00  0.00    +0.008 A 
ENDBRANCH  15  16
ENDBRANCH  13  14
ENDBRANCH  12  13
ENDBRANCH   2  12
BRANCH  22  23
ATOM     23  C   LIG    1        1.527  29.950  62.151  0.00  0.00    +0.197 C 
BRANCH  23  24
ATOM     24  O   LIG    1        1.643  30.966  63.129  0.00  0.00    -0.346 OA
BRANCH  24  25
ATOM     25  C   LIG    1        2.981  31.102  63.595  0.00  0.00    +0.281 C 
ATOM     26  C   LIG    1        3.477  32.535  63.350  0.00  0.00    +0.201 C 
ATOM     27  C   LIG    1        2.856  33.536  64.330  0.00  0.00    +0.178 C 
ATOM     28  C   LIG    1        2.982  33.016  65.763  0.00  0.00    +0.171 C 
ATOM     29  C   LIG    1        2.432  31.600  65.871  0.00  0.00    +0.197 C 
ATOM     36  O   LIG    1        3.111  30.727  64.971  0.00  0.00    -0.346 OA
BRANCH  28  30
ATOM     30  O   LIG    1        2.294  33.884  66.653  0.00  0.00    -0.387 OA
ATOM     31  H   LIG    1        2.053  34.684  66.155  0.00  0.00    +0.210 HD
ENDBRANCH  28  30
BRANCH  27  32
ATOM     32  O   LIG    1        1.477  33.720  64.015  0.00  0.00    -0.386 OA
ATOM     33  H   LIG    1        0.999  33.843  64.853  0.00  0.00    +0.210 HD
ENDBRANCH  27  32
BRANCH  26  34
ATOM     34  O   LIG    1        4.895  32.543  63.502  0.00  0.00    -0.384 OA
ATOM     35  H   LIG    1        5.111  32.971  64.347  0.00  0.00    +0.210 HD
ENDBRANCH  26  34
ENDBRANCH  24  25
ENDBRANCH  23  24
ENDBRANCH  22  23
TORSDOF 13
ENDMDL
MODEL 9
REMARK VINA RESULT:      -6.7      2.964      5.660
REMARK  Name = 9823887
REMARK                            x       y       z     vdW  Elec       q    Type
REMARK                         _______ _______ _______ _____ _____    ______ ____
ROOT
ATOM      1  O   LIG    1       -6.198  31.751  62.165  0.00  0.00    -0.341 OA
ATOM      2  C   LIG    1       -7.307  32.412  61.559  0.00  0.00    +0.282 C 
ATOM      3  C   LIG    1       -7.798  33.557  62.445  0.00  0.00    +0.201 C 
ATOM      4  C   LIG    1       -6.660  34.514  62.800  0.00  0.00    +0.179 C 
ATOM      5  C   LIG    1       -5.431  33.753  63.297  0.00  0.00    +0.177 C 
ATOM     22  C   LIG    1       -5.073  32.614  62.339  0.00  0.00    +0.178 C 
ENDROOT
BRANCH   5   6
ATOM      6  O   LIG    1       -4.328  34.650  63.396  0.00  0.00    -0.386 OA
ATOM      7  H   LIG    1       -4.035  34.663  64.323  0.00  0.00    +0.210 HD
ENDBRANCH   5   6
BRANCH   4   8
ATOM      8  O   LIG    1       -7.085  35.394  63.842  0.00  0.00    -0.386 OA
ATOM      9  H   LIG    1       -8.026  35.213  64.009  0.00  0.00    +0.210 HD
ENDBRANCH   4   8
BRANCH   3  10
ATOM     10  O   LIG    1       -8.812  34.268  61.736  0.00  0.00    -0.384 OA
ATOM     11  H   LIG    1       -8.617  34.203  60.786  0.00  0.00    +0.210 HD
ENDBRANCH   3  10
BRANCH   2  12
ATOM     12  O   LIG    1       -8.384  31.492  61.391  0.00  0.00    -0.345 OA
BRANCH  12  13
ATOM     13  C   LIG    1       -8.151  30.619  60.297  0.00  0.00    +0.190 C 
BRANCH  13  14
ATOM     14  C   LIG    1       -9.265  30.775  59.312  0.00  0.00    +0.001 C 
ATOM     15  C   LIG    1       -9.646  31.960  58.812  0.00  0.00    +0.006 C 
BRANCH  15  16
ATOM     16  C   LIG    1      -10.725  32.160  57.829  0.00  0.00    -0.025 A 
ATOM     17  C   LIG    1      -11.494  31.076  57.435  0.00  0.00    +0.008 A 
ATOM     18  C   LIG    1      -12.516  31.267  56.505  0.00  0.00    +0.001 A 
ATOM     19  C   LIG    1      -12.755  32.536  55.981  0.00  0.00    +0.000 A 
ATOM     20  C   LIG    1      -11.973  33.617  56.387  0.00  0.00    +0.001 A 
ATOM     21  C   LIG    1      -10.951  33.428  57.317  0.00  0.00    +0.008 A 
ENDBRANCH  15  16
ENDBRANCH  13  14
ENDBRANCH  12  13
ENDBRANCH   2  12
BRANCH  22  23
ATOM     23  C   LIG    1       -3.921  31.767  62.872  0.00  0.00    +0.197 C 
BRANCH  23  24
ATOM     24  O   LIG    1       -2.787  31.982  62.052  0.00  0.00    -0.346 OA
BRANCH  24  25
ATOM     25  C   LIG    1       -1.849  32.859  62.667  0.00  0.00    +0.281 C 
ATOM     26  C   LIG    1       -0.527  32.118  62.917  0.00  0.00    +0.201 C 
ATOM     27  C   LIG    1        0.267  31.903  61.623  0.00  0.00    +0.178 C 
ATOM     28  C   LIG    1        0.367  33.214  60.843  0.00  0.00    +0.171 C 
ATOM     29  C   LIG    1       -1.012  33.829  60.645  0.00  0.00    +0.197 C 
ATOM     36  O   LIG    1       -1.648  34.052  61.901  0.00  0.00    -0.346 OA
BRANCH  28  30
ATOM     30  O   LIG    1        0.992  32.983  59.588  0.00  0.00    -0.387 OA
ATOM     31  H   LIG    1        0.983  32.023  59.428  0.00  0.00    +0.210 HD
ENDBRANCH  28  30
BRANCH  27  32
ATOM     32  O   LIG    1       -0.389  30.924  60.818  0.00  0.00    -0.386 OA
ATOM     33  H   LIG    1       -1.309  30.862  61.125  0.00  0.00    +0.210 HD
ENDBRANCH  27  32
BRANCH  26  34
ATOM     34  O   LIG    1        0.250  32.896  63.823  0.00  0.00    -0.384 OA
ATOM     35  H   LIG    1       -0.335  33.226  64.526  0.00  0.00    +0.210 HD
ENDBRANCH  26  34
ENDBRANCH  24  25
ENDBRANCH  23  24
ENDBRANCH  22  23
TORSDOF 13
ENDMDL
