MODEL 1
REMARK VINA RESULT:      -7.4      0.000      0.000
REMARK  Name = 439533
REMARK                            x       y       z     vdW  Elec       q    Type
REMARK                         _______ _______ _______ _____ _____    ______ ____
ROOT
ATOM      1  O   LIG    1       10.477  15.650  41.397  0.00  0.00    -0.480 OA
ATOM      2  C   LIG    1        9.235  15.528  41.961  0.00  0.00    +0.139 A 
ATOM      3  C   LIG    1        8.194  15.165  41.105  0.00  0.00    +0.092 A 
ATOM      4  C   LIG    1        6.898  15.024  41.602  0.00  0.00    +0.124 A 
ATOM      5  C   LIG    1        6.642  15.235  42.957  0.00  0.00    +0.091 A 
ATOM      6  C   LIG    1        7.680  15.579  43.821  0.00  0.00    +0.134 A 
ATOM     11  C   LIG    1        8.978  15.716  43.321  0.00  0.00    +0.103 A 
ATOM     12  C   LIG    1       10.100  16.032  44.228  0.00  0.00    +0.202 C 
ATOM     13  C   LIG    1       11.478  15.977  43.606  0.00  0.00    +0.230 C 
ATOM     16  O   LIG    1        9.905  16.290  45.410  0.00  0.00    -0.289 OA
ATOM     17  C   LIG    1       11.385  16.460  42.159  0.00  0.00    +0.240 C 
ENDROOT
BRANCH  17  18
ATOM     18  C   LIG    1       12.730  16.407  41.460  0.00  0.00    -0.001 A 
ATOM     19  C   LIG    1       12.953  17.181  40.323  0.00  0.00    +0.011 A 
ATOM     20  C   LIG    1       14.190  17.132  39.680  0.00  0.00    +0.049 A 
ATOM     21  C   LIG    1       15.202  16.310  40.177  0.00  0.00    +0.158 A 
ATOM     22  C   LIG    1       14.976  15.536  41.315  0.00  0.00    +0.159 A 
ATOM     27  C   LIG    1       13.738  15.585  41.958  0.00  0.00    +0.056 A 
BRANCH  22  23
ATOM     23  O   LIG    1       15.956  14.729  41.809  0.00  0.00    -0.503 OA
ATOM     24  H   LIG    1       16.704  14.741  41.187  0.00  0.00    +0.292 HD
ENDBRANCH  22  23
BRANCH  21  25
ATOM     25  O   LIG    1       16.405  16.269  39.540  0.00  0.00    -0.503 OA
ATOM     26  H   LIG    1       17.096  16.034  40.183  0.00  0.00    +0.292 HD
ENDBRANCH  21  25
ENDBRANCH  17  18
BRANCH   6   7
ATOM      7  O   LIG    1        7.377  15.755  45.137  0.00  0.00    -0.506 OA
ATOM      8  H   LIG    1        6.434  15.951  45.249  0.00  0.00    +0.292 HD
ENDBRANCH   6   7
BRANCH   4   9
ATOM      9  O   LIG    1        5.882  14.681  40.764  0.00  0.00    -0.507 OA
ATOM     10  H   LIG    1        5.957  13.735  40.547  0.00  0.00    +0.292 HD
ENDBRANCH   4   9
BRANCH  13  14
ATOM     14  O   LIG    1       12.333  16.827  44.351  0.00  0.00    -0.380 OA
ATOM     15  H   LIG    1       11.784  17.294  45.005  0.00  0.00    +0.211 HD
ENDBRANCH  13  14
TORSDOF 6
ENDMDL
MODEL 2
REMARK VINA RESULT:      -7.4      1.935      6.764
REMARK  Name = 439533
REMARK                            x       y       z     vdW  Elec       q    Type
REMARK                         _______ _______ _______ _____ _____    ______ ____
ROOT
ATOM      1  O   LIG    1        9.814  15.419  41.923  0.00  0.00    -0.480 OA
ATOM      2  C   LIG    1       11.053  15.696  41.408  0.00  0.00    +0.139 A 
ATOM      3  C   LIG    1       11.494  14.875  40.369  0.00  0.00    +0.092 A 
ATOM      4  C   LIG    1       12.747  15.090  39.793  0.00  0.00    +0.124 A 
ATOM      5  C   LIG    1       13.556  16.130  40.249  0.00  0.00    +0.091 A 
ATOM      6  C   LIG    1       13.114  16.966  41.273  0.00  0.00    +0.134 A 
ATOM     11  C   LIG    1       11.857  16.751  41.845  0.00  0.00    +0.103 A 
ATOM     12  C   LIG    1       11.350  17.654  42.898  0.00  0.00    +0.202 C 
ATOM     13  C   LIG    1        9.911  17.434  43.311  0.00  0.00    +0.230 C 
ATOM     16  O   LIG    1       12.057  18.537  43.369  0.00  0.00    -0.289 OA
ATOM     17  C   LIG    1        9.605  15.937  43.246  0.00  0.00    +0.240 C 
ENDROOT
BRANCH  17  18
ATOM     18  C   LIG    1        8.167  15.640  43.623  0.00  0.00    -0.001 A 
ATOM     19  C   LIG    1        7.229  15.369  42.628  0.00  0.00    +0.011 A 
ATOM     20  C   LIG    1        5.906  15.096  42.975  0.00  0.00    +0.049 A 
ATOM     21  C   LIG    1        5.524  15.092  44.316  0.00  0.00    +0.158 A 
ATOM     22  C   LIG    1        6.463  15.364  45.311  0.00  0.00    +0.159 A 
ATOM     27  C   LIG    1        7.787  15.637  44.963  0.00  0.00    +0.056 A 
BRANCH  22  23
ATOM     23  O   LIG    1        6.101  15.364  46.623  0.00  0.00    -0.503 OA
ATOM     24  H   LIG    1        6.381  14.520  47.018  0.00  0.00    +0.292 HD
ENDBRANCH  22  23
BRANCH  21  25
ATOM     25  O   LIG    1        4.229  14.825  44.643  0.00  0.00    -0.503 OA
ATOM     26  H   LIG    1        3.811  14.340  43.910  0.00  0.00    +0.292 HD
ENDBRANCH  21  25
ENDBRANCH  17  18
BRANCH   6   7
ATOM      7  O   LIG    1       13.938  17.978  41.665  0.00  0.00    -0.506 OA
ATOM      8  H   LIG    1       14.805  17.633  41.926  0.00  0.00    +0.292 HD
ENDBRANCH   6   7
BRANCH   4   9
ATOM      9  O   LIG    1       13.180  14.281  38.788  0.00  0.00    -0.507 OA
ATOM     10  H   LIG    1       13.594  13.490  39.174  0.00  0.00    +0.292 HD
ENDBRANCH   4   9
BRANCH  13  14
ATOM     14  O   LIG    1        9.755  17.907  44.637  0.00  0.00    -0.380 OA
ATOM     15  H   LIG    1       10.564  18.395  44.871  0.00  0.00    +0.211 HD
ENDBRANCH  13  14
TORSDOF 6
ENDMDL
MODEL 3
REMARK VINA RESULT:      -7.0     26.979     28.699
REMARK  Name = 439533
REMARK                            x       y       z     vdW  Elec       q    Type
REMARK                         _______ _______ _______ _____ _____    ______ ____
ROOT
ATOM      1  O   LIG    1        2.956  32.134  63.885  0.00  0.00    -0.480 OA
ATOM      2  C   LIG    1        2.042  32.004  62.875  0.00  0.00    +0.139 A 
ATOM      3  C   LIG    1        2.160  32.895  61.807  0.00  0.00    +0.092 A 
ATOM      4  C   LIG    1        1.264  32.830  60.739  0.00  0.00    +0.124 A 
ATOM      5  C   LIG    1        0.254  31.868  60.733  0.00  0.00    +0.091 A 
ATOM      6  C   LIG    1        0.141  30.962  61.787  0.00  0.00    +0.134 A 
ATOM     11  C   LIG    1        1.043  31.028  62.853  0.00  0.00    +0.103 A 
ATOM     12  C   LIG    1        0.971  30.047  63.955  0.00  0.00    +0.202 C 
ATOM     13  C   LIG    1        2.105  30.104  64.955  0.00  0.00    +0.230 C 
ATOM     16  O   LIG    1        0.059  29.231  64.017  0.00  0.00    -0.289 OA
ATOM     17  C   LIG    1        2.532  31.561  65.132  0.00  0.00    +0.240 C 
ENDROOT
BRANCH  17  18
ATOM     18  C   LIG    1        3.688  31.695  66.104  0.00  0.00    -0.001 A 
ATOM     19  C   LIG    1        3.557  32.502  67.233  0.00  0.00    +0.011 A 
ATOM     20  C   LIG    1        4.620  32.624  68.127  0.00  0.00    +0.049 A 
ATOM     21  C   LIG    1        5.812  31.938  67.891  0.00  0.00    +0.158 A 
ATOM     22  C   LIG    1        5.942  31.132  66.761  0.00  0.00    +0.159 A 
ATOM     27  C   LIG    1        4.877  31.010  65.867  0.00  0.00    +0.056 A 
BRANCH  22  23
ATOM     23  O   LIG    1        7.100  30.459  66.520  0.00  0.00    -0.503 OA
ATOM     24  H   LIG    1        7.845  31.064  66.681  0.00  0.00    +0.292 HD
ENDBRANCH  22  23
BRANCH  21  25
ATOM     25  O   LIG    1        6.844  32.067  68.771  0.00  0.00    -0.503 OA
ATOM     26  H   LIG    1        7.395  32.824  68.506  0.00  0.00    +0.292 HD
ENDBRANCH  21  25
ENDBRANCH  17  18
BRANCH   6   7
ATOM      7  O   LIG    1       -0.852  30.032  61.719  0.00  0.00    -0.506 OA
ATOM      8  H   LIG    1       -0.874  29.617  60.843  0.00  0.00    +0.292 HD
ENDBRANCH   6   7
BRANCH   4   9
ATOM      9  O   LIG    1        1.374  33.707  59.704  0.00  0.00    -0.507 OA
ATOM     10  H   LIG    1        0.555  34.228  59.643  0.00  0.00    +0.292 HD
ENDBRANCH   4   9
BRANCH  13  14
ATOM     14  O   LIG    1        1.635  29.580  66.185  0.00  0.00    -0.380 OA
ATOM     15  H   LIG    1        0.673  29.461  66.105  0.00  0.00    +0.211 HD
ENDBRANCH  13  14
TORSDOF 6
ENDMDL
MODEL 4
REMARK VINA RESULT:      -7.0     26.560     29.073
REMARK  Name = 439533
REMARK                            x       y       z     vdW  Elec       q    Type
REMARK                         _______ _______ _______ _____ _____    ______ ____
ROOT
ATOM      1  O   LIG    1        2.192  32.094  63.982  0.00  0.00    -0.480 OA
ATOM      2  C   LIG    1        3.219  32.314  64.861  0.00  0.00    +0.139 A 
ATOM      3  C   LIG    1        3.849  33.557  64.786  0.00  0.00    +0.092 A 
ATOM      4  C   LIG    1        4.907  33.857  65.645  0.00  0.00    +0.124 A 
ATOM      5  C   LIG    1        5.332  32.918  66.585  0.00  0.00    +0.091 A 
ATOM      6  C   LIG    1        4.696  31.681  66.677  0.00  0.00    +0.134 A 
ATOM     11  C   LIG    1        3.633  31.385  65.819  0.00  0.00    +0.103 A 
ATOM     12  C   LIG    1        2.915  30.101  65.933  0.00  0.00    +0.202 C 
ATOM     13  C   LIG    1        1.673  29.967  65.078  0.00  0.00    +0.230 C 
ATOM     16  O   LIG    1        3.300  29.226  66.700  0.00  0.00    -0.289 OA
ATOM     17  C   LIG    1        1.905  30.705  63.759  0.00  0.00    +0.240 C 
ENDROOT
BRANCH  17  18
ATOM     18  C   LIG    1        0.688  30.638  62.856  0.00  0.00    -0.001 A 
ATOM     19  C   LIG    1        0.699  29.811  61.734  0.00  0.00    +0.011 A 
ATOM     20  C   LIG    1       -0.420  29.749  60.904  0.00  0.00    +0.049 A 
ATOM     21  C   LIG    1       -1.549  30.514  61.198  0.00  0.00    +0.158 A 
ATOM     22  C   LIG    1       -1.558  31.342  62.321  0.00  0.00    +0.159 A 
ATOM     27  C   LIG    1       -0.438  31.403  63.151  0.00  0.00    +0.056 A 
BRANCH  22  23
ATOM     23  O   LIG    1       -2.654  32.094  62.617  0.00  0.00    -0.503 OA
ATOM     24  H   LIG    1       -2.385  32.799  63.231  0.00  0.00    +0.292 HD
ENDBRANCH  22  23
BRANCH  21  25
ATOM     25  O   LIG    1       -2.635  30.447  60.379  0.00  0.00    -0.503 OA
ATOM     26  H   LIG    1       -3.203  29.710  60.666  0.00  0.00    +0.292 HD
ENDBRANCH  21  25
ENDBRANCH  17  18
BRANCH   6   7
ATOM      7  O   LIG    1        5.139  30.810  67.626  0.00  0.00    -0.506 OA
ATOM      8  H   LIG    1        5.513  30.017  67.215  0.00  0.00    +0.292 HD
ENDBRANCH   6   7
BRANCH   4   9
ATOM      9  O   LIG    1        5.527  35.066  65.564  0.00  0.00    -0.507 OA
ATOM     10  H   LIG    1        6.488  34.926  65.517  0.00  0.00    +0.292 HD
ENDBRANCH   4   9
BRANCH  13  14
ATOM     14  O   LIG    1        1.451  28.590  64.834  0.00  0.00    -0.380 OA
ATOM     15  H   LIG    1        0.899  28.249  65.559  0.00  0.00    +0.211 HD
ENDBRANCH  13  14
TORSDOF 6
ENDMDL
MODEL 5
REMARK VINA RESULT:      -6.9      2.187      4.046
REMARK  Name = 439533
REMARK                            x       y       z     vdW  Elec       q    Type
REMARK                         _______ _______ _______ _____ _____    ______ ____
ROOT
ATOM      1  O   LIG    1        8.515  15.657  43.008  0.00  0.00    -0.480 OA
ATOM      2  C   LIG    1        7.291  15.407  43.569  0.00  0.00    +0.139 A 
ATOM      3  C   LIG    1        7.206  15.521  44.958  0.00  0.00    +0.092 A 
ATOM      4  C   LIG    1        5.994  15.279  45.605  0.00  0.00    +0.124 A 
ATOM      5  C   LIG    1        4.863  14.932  44.866  0.00  0.00    +0.091 A 
ATOM      6  C   LIG    1        4.936  14.835  43.477  0.00  0.00    +0.134 A 
ATOM     11  C   LIG    1        6.150  15.082  42.831  0.00  0.00    +0.103 A 
ATOM     12  C   LIG    1        6.237  15.032  41.357  0.00  0.00    +0.202 C 
ATOM     13  C   LIG    1        7.550  15.493  40.764  0.00  0.00    +0.230 C 
ATOM     16  O   LIG    1        5.284  14.667  40.679  0.00  0.00    -0.289 OA
ATOM     17  C   LIG    1        8.685  15.082  41.703  0.00  0.00    +0.240 C 
ENDROOT
BRANCH  17  18
ATOM     18  C   LIG    1       10.036  15.536  41.185  0.00  0.00    -0.001 A 
ATOM     19  C   LIG    1       10.542  16.779  41.558  0.00  0.00    +0.011 A 
ATOM     20  C   LIG    1       11.785  17.196  41.082  0.00  0.00    +0.049 A 
ATOM     21  C   LIG    1       12.520  16.367  40.234  0.00  0.00    +0.158 A 
ATOM     22  C   LIG    1       12.012  15.123  39.861  0.00  0.00    +0.159 A 
ATOM     27  C   LIG    1       10.769  14.706  40.338  0.00  0.00    +0.056 A 
BRANCH  22  23
ATOM     23  O   LIG    1       12.720  14.306  39.034  0.00  0.00    -0.503 OA
ATOM     24  H   LIG    1       13.547  14.758  38.791  0.00  0.00    +0.292 HD
ENDBRANCH  22  23
BRANCH  21  25
ATOM     25  O   LIG    1       13.732  16.785  39.774  0.00  0.00    -0.503 OA
ATOM     26  H   LIG    1       13.847  16.478  38.858  0.00  0.00    +0.292 HD
ENDBRANCH  21  25
ENDBRANCH  17  18
BRANCH   6   7
ATOM      7  O   LIG    1        3.797  14.512  42.804  0.00  0.00    -0.506 OA
ATOM      8  H   LIG    1        3.441  15.285  42.341  0.00  0.00    +0.292 HD
ENDBRANCH   6   7
BRANCH   4   9
ATOM      9  O   LIG    1        5.915  15.379  46.960  0.00  0.00    -0.507 OA
ATOM     10  H   LIG    1        6.813  15.475  47.323  0.00  0.00    +0.292 HD
ENDBRANCH   4   9
BRANCH  13  14
ATOM     14  O   LIG    1        7.709  14.866  39.503  0.00  0.00    -0.380 OA
ATOM     15  H   LIG    1        7.080  15.281  38.888  0.00  0.00    +0.211 HD
ENDBRANCH  13  14
TORSDOF 6
ENDMDL
MODEL 6
REMARK VINA RESULT:      -6.9     26.831     28.744
REMARK  Name = 439533
REMARK                            x       y       z     vdW  Elec       q    Type
REMARK                         _______ _______ _______ _____ _____    ______ ____
ROOT
ATOM      1  O   LIG    1        1.426  30.112  64.469  0.00  0.00    -0.480 OA
ATOM      2  C   LIG    1        2.497  30.151  65.321  0.00  0.00    +0.139 A 
ATOM      3  C   LIG    1        2.483  29.245  66.383  0.00  0.00    +0.092 A 
ATOM      4  C   LIG    1        3.536  29.225  67.298  0.00  0.00    +0.124 A 
ATOM      5  C   LIG    1        4.610  30.103  67.147  0.00  0.00    +0.091 A 
ATOM      6  C   LIG    1        4.639  30.997  66.079  0.00  0.00    +0.134 A 
ATOM     11  C   LIG    1        3.585  31.013  65.162  0.00  0.00    +0.103 A 
ATOM     12  C   LIG    1        3.621  31.918  63.996  0.00  0.00    +0.202 C 
ATOM     13  C   LIG    1        2.518  31.719  62.979  0.00  0.00    +0.230 C 
ATOM     16  O   LIG    1        4.513  32.749  63.866  0.00  0.00    -0.289 OA
ATOM     17  C   LIG    1        1.238  31.320  63.715  0.00  0.00    +0.240 C 
ENDROOT
BRANCH  17  18
ATOM     18  C   LIG    1        0.090  31.075  62.754  0.00  0.00    -0.001 A 
ATOM     19  C   LIG    1        0.026  29.884  62.035  0.00  0.00    +0.011 A 
ATOM     20  C   LIG    1       -1.030  29.660  61.152  0.00  0.00    +0.049 A 
ATOM     21  C   LIG    1       -2.021  30.628  60.991  0.00  0.00    +0.158 A 
ATOM     22  C   LIG    1       -1.956  31.820  61.712  0.00  0.00    +0.159 A 
ATOM     27  C   LIG    1       -0.899  32.044  62.595  0.00  0.00    +0.056 A 
BRANCH  22  23
ATOM     23  O   LIG    1       -2.918  32.772  61.562  0.00  0.00    -0.503 OA
ATOM     24  H   LIG    1       -3.495  32.750  62.345  0.00  0.00    +0.292 HD
ENDBRANCH  22  23
BRANCH  21  25
ATOM     25  O   LIG    1       -3.047  30.398  60.125  0.00  0.00    -0.503 OA
ATOM     26  H   LIG    1       -2.897  29.549  59.673  0.00  0.00    +0.292 HD
ENDBRANCH  21  25
ENDBRANCH  17  18
BRANCH   6   7
ATOM      7  O   LIG    1        5.721  31.818  65.970  0.00  0.00    -0.506 OA
ATOM      8  H   LIG    1        6.350  31.473  65.318  0.00  0.00    +0.292 HD
ENDBRANCH   6   7
BRANCH   4   9
ATOM      9  O   LIG    1        3.515  28.348  68.339  0.00  0.00    -0.507 OA
ATOM     10  H   LIG    1        2.592  28.110  68.533  0.00  0.00    +0.292 HD
ENDBRANCH   4   9
BRANCH  13  14
ATOM     14  O   LIG    1        2.324  32.943  62.292  0.00  0.00    -0.380 OA
ATOM     15  H   LIG    1        2.118  33.623  62.956  0.00  0.00    +0.211 HD
ENDBRANCH  13  14
TORSDOF 6
ENDMDL
MODEL 7
REMARK VINA RESULT:      -6.9      1.615      2.431
REMARK  Name = 439533
REMARK                            x       y       z     vdW  Elec       q    Type
REMARK                         _______ _______ _______ _____ _____    ______ ____
ROOT
ATOM      1  O   LIG    1        8.652  15.572  41.627  0.00  0.00    -0.480 OA
ATOM      2  C   LIG    1        7.360  15.194  41.881  0.00  0.00    +0.139 A 
ATOM      3  C   LIG    1        6.582  14.852  40.774  0.00  0.00    +0.092 A 
ATOM      4  C   LIG    1        5.254  14.459  40.949  0.00  0.00    +0.124 A 
ATOM      5  C   LIG    1        4.705  14.399  42.230  0.00  0.00    +0.091 A 
ATOM      6  C   LIG    1        5.482  14.722  43.341  0.00  0.00    +0.134 A 
ATOM     11  C   LIG    1        6.813  15.110  43.164  0.00  0.00    +0.103 A 
ATOM     12  C   LIG    1        7.667  15.409  44.331  0.00  0.00    +0.202 C 
ATOM     13  C   LIG    1        9.131  15.641  44.027  0.00  0.00    +0.230 C 
ATOM     16  O   LIG    1        7.204  15.432  45.465  0.00  0.00    -0.289 OA
ATOM     17  C   LIG    1        9.247  16.350  42.677  0.00  0.00    +0.240 C 
ENDROOT
BRANCH  17  18
ATOM     18  C   LIG    1       10.693  16.594  42.292  0.00  0.00    -0.001 A 
ATOM     19  C   LIG    1       11.355  17.729  42.755  0.00  0.00    +0.011 A 
ATOM     20  C   LIG    1       12.685  17.953  42.401  0.00  0.00    +0.049 A 
ATOM     21  C   LIG    1       13.351  17.039  41.583  0.00  0.00    +0.158 A 
ATOM     22  C   LIG    1       12.687  15.904  41.120  0.00  0.00    +0.159 A 
ATOM     27  C   LIG    1       11.357  15.681  41.475  0.00  0.00    +0.056 A 
BRANCH  22  23
ATOM     23  O   LIG    1       13.327  15.006  40.321  0.00  0.00    -0.503 OA
ATOM     24  H   LIG    1       14.279  15.207  40.336  0.00  0.00    +0.292 HD
ENDBRANCH  22  23
BRANCH  21  25
ATOM     25  O   LIG    1       14.650  17.269  41.242  0.00  0.00    -0.503 OA
ATOM     26  H   LIG    1       15.132  16.424  41.243  0.00  0.00    +0.292 HD
ENDBRANCH  21  25
ENDBRANCH  17  18
BRANCH   6   7
ATOM      7  O   LIG    1        4.901  14.627  44.569  0.00  0.00    -0.506 OA
ATOM      8  H   LIG    1        5.106  15.407  45.106  0.00  0.00    +0.292 HD
ENDBRANCH   6   7
BRANCH   4   9
ATOM      9  O   LIG    1        4.493  14.136  39.867  0.00  0.00    -0.507 OA
ATOM     10  H   LIG    1        4.461  14.899  39.264  0.00  0.00    +0.292 HD
ENDBRANCH   4   9
BRANCH  13  14
ATOM     14  O   LIG    1        9.671  16.454  45.054  0.00  0.00    -0.380 OA
ATOM     15  H   LIG    1        9.029  16.471  45.784  0.00  0.00    +0.211 HD
ENDBRANCH  13  14
TORSDOF 6
ENDMDL
MODEL 8
REMARK VINA RESULT:      -6.9      1.739      6.870
REMARK  Name = 439533
REMARK                            x       y       z     vdW  Elec       q    Type
REMARK                         _______ _______ _______ _____ _____    ______ ____
ROOT
ATOM      1  O   LIG    1        9.194  15.575  41.278  0.00  0.00    -0.480 OA
ATOM      2  C   LIG    1       10.498  15.653  41.688  0.00  0.00    +0.139 A 
ATOM      3  C   LIG    1       11.471  15.327  40.741  0.00  0.00    +0.092 A 
ATOM      4  C   LIG    1       12.823  15.377  41.082  0.00  0.00    +0.124 A 
ATOM      5  C   LIG    1       13.206  15.762  42.367  0.00  0.00    +0.091 A 
ATOM      6  C   LIG    1       12.241  16.107  43.312  0.00  0.00    +0.134 A 
ATOM     11  C   LIG    1       10.888  16.060  42.966  0.00  0.00    +0.103 A 
ATOM     12  C   LIG    1        9.853  16.467  43.938  0.00  0.00    +0.202 C 
ATOM     13  C   LIG    1        8.442  16.548  43.395  0.00  0.00    +0.230 C 
ATOM     16  O   LIG    1       10.145  16.747  45.094  0.00  0.00    -0.289 OA
ATOM     17  C   LIG    1        8.253  15.443  42.354  0.00  0.00    +0.240 C 
ENDROOT
BRANCH  17  18
ATOM     18  C   LIG    1        6.865  15.478  41.744  0.00  0.00    -0.001 A 
ATOM     19  C   LIG    1        6.035  14.362  41.839  0.00  0.00    +0.011 A 
ATOM     20  C   LIG    1        4.759  14.394  41.278  0.00  0.00    +0.049 A 
ATOM     21  C   LIG    1        4.314  15.543  40.624  0.00  0.00    +0.158 A 
ATOM     22  C   LIG    1        5.145  16.659  40.529  0.00  0.00    +0.159 A 
ATOM     27  C   LIG    1        6.422  16.626  41.091  0.00  0.00    +0.056 A 
BRANCH  22  23
ATOM     23  O   LIG    1        4.722  17.785  39.892  0.00  0.00    -0.503 OA
ATOM     24  H   LIG    1        4.882  18.546  40.477  0.00  0.00    +0.292 HD
ENDBRANCH  22  23
BRANCH  21  25
ATOM     25  O   LIG    1        3.066  15.562  40.078  0.00  0.00    -0.503 OA
ATOM     26  H   LIG    1        2.599  16.360  40.382  0.00  0.00    +0.292 HD
ENDBRANCH  21  25
ENDBRANCH  17  18
BRANCH   6   7
ATOM      7  O   LIG    1       12.672  16.494  44.545  0.00  0.00    -0.506 OA
ATOM      8  H   LIG    1       13.211  15.800  44.953  0.00  0.00    +0.292 HD
ENDBRANCH   6   7
BRANCH   4   9
ATOM      9  O   LIG    1       13.769  15.049  40.160  0.00  0.00    -0.507 OA
ATOM     10  H   LIG    1       14.614  14.892  40.616  0.00  0.00    +0.292 HD
ENDBRANCH   4   9
BRANCH  13  14
ATOM     14  O   LIG    1        7.543  16.362  44.474  0.00  0.00    -0.380 OA
ATOM     15  H   LIG    1        6.896  15.688  44.204  0.00  0.00    +0.211 HD
ENDBRANCH  13  14
TORSDOF 6
ENDMDL
MODEL 9
REMARK VINA RESULT:      -6.8      5.150      9.842
REMARK  Name = 439533
REMARK                            x       y       z     vdW  Elec       q    Type
REMARK                         _______ _______ _______ _____ _____    ______ ____
ROOT
ATOM      1  O   LIG    1        3.600  14.751  42.991  0.00  0.00    -0.480 OA
ATOM      2  C   LIG    1        4.802  14.964  43.610  0.00  0.00    +0.139 A 
ATOM      3  C   LIG    1        4.780  15.049  45.003  0.00  0.00    +0.092 A 
ATOM      4  C   LIG    1        5.964  15.269  45.709  0.00  0.00    +0.124 A 
ATOM      5  C   LIG    1        7.172  15.395  45.024  0.00  0.00    +0.091 A 
ATOM      6  C   LIG    1        7.205  15.293  43.634  0.00  0.00    +0.134 A 
ATOM     11  C   LIG    1        6.018  15.069  42.930  0.00  0.00    +0.103 A 
ATOM     12  C   LIG    1        6.037  14.909  41.463  0.00  0.00    +0.202 C 
ATOM     13  C   LIG    1        4.726  14.491  40.833  0.00  0.00    +0.230 C 
ATOM     16  O   LIG    1        7.068  15.079  40.821  0.00  0.00    -0.289 OA
ATOM     17  C   LIG    1        3.580  15.141  41.609  0.00  0.00    +0.240 C 
ENDROOT
BRANCH  17  18
ATOM     18  C   LIG    1        2.227  14.745  41.050  0.00  0.00    -0.001 A 
ATOM     19  C   LIG    1        2.104  13.594  40.274  0.00  0.00    +0.011 A 
ATOM     20  C   LIG    1        0.860  13.230  39.760  0.00  0.00    +0.049 A 
ATOM     21  C   LIG    1       -0.260  14.018  40.024  0.00  0.00    +0.158 A 
ATOM     22  C   LIG    1       -0.137  15.170  40.801  0.00  0.00    +0.159 A 
ATOM     27  C   LIG    1        1.109  15.533  41.315  0.00  0.00    +0.056 A 
BRANCH  22  23
ATOM     23  O   LIG    1       -1.223  15.947  41.065  0.00  0.00    -0.503 OA
ATOM     24  H   LIG    1       -0.990  16.873  40.878  0.00  0.00    +0.292 HD
ENDBRANCH  22  23
BRANCH  21  25
ATOM     25  O   LIG    1       -1.470  13.654  39.516  0.00  0.00    -0.503 OA
ATOM     26  H   LIG    1       -1.330  13.065  38.754  0.00  0.00    +0.292 HD
ENDBRANCH  21  25
ENDBRANCH  17  18
BRANCH   6   7
ATOM      7  O   LIG    1        8.415  15.405  43.019  0.00  0.00    -0.506 OA
ATOM      8  H   LIG    1        8.324  15.294  42.060  0.00  0.00    +0.292 HD
ENDBRANCH   6   7
BRANCH   4   9
ATOM      9  O   LIG    1        5.939  15.363  47.066  0.00  0.00    -0.507 OA
ATOM     10  H   LIG    1        6.038  16.296  47.321  0.00  0.00    +0.292 HD
ENDBRANCH   4   9
BRANCH  13  14
ATOM     14  O   LIG    1        4.721  14.937  39.489  0.00  0.00    -0.380 OA
ATOM     15  H   LIG    1        4.363  15.842  39.481  0.00  0.00    +0.211 HD
ENDBRANCH  13  14
TORSDOF 6
ENDMDL
