MODEL 1
REMARK VINA RESULT:      -7.6      0.000      0.000
REMARK  Name = 41774
REMARK                            x       y       z     vdW  Elec       q    Type
REMARK                         _______ _______ _______ _____ _____    ______ ____
ROOT
ATOM      1  O   LIG    1       -6.288  31.986  61.254  0.00  0.00    -0.340 OA
ENDROOT
BRANCH   1   2
ATOM      2  C   LIG    1       -7.612  31.474  61.387  0.00  0.00    +0.282 C 
ATOM      3  C   LIG    1       -7.763  30.271  60.454  0.00  0.00    +0.200 C 
ATOM      4  C   LIG    1       -9.192  29.723  60.491  0.00  0.00    +0.167 C 
ATOM      5  C   LIG    1      -10.251  30.832  60.334  0.00  0.00    +0.114 C 
ATOM      6  C   LIG    1       -9.938  32.080  61.190  0.00  0.00    +0.138 C 
ATOM      7  C   LIG    1      -10.335  31.926  62.660  0.00  0.00    +0.039 C 
ATOM     29  O   LIG    1       -8.569  32.484  61.067  0.00  0.00    -0.344 OA
BRANCH   5   8
ATOM      8  N   LIG    1      -10.324  31.238  58.924  0.00  0.00    -0.300 NA
ATOM      9  H   LIG    1       -9.852  30.550  58.339  0.00  0.00    +0.123 HD
BRANCH   8  10
ATOM     10  C   LIG    1      -11.718  31.401  58.505  0.00  0.00    +0.109 C 
ATOM     11  C   LIG    1      -11.857  32.488  57.471  0.00  0.00    -0.002 C 
ATOM     12  C   LIG    1      -12.683  32.414  56.411  0.00  0.00    -0.016 C 
ATOM     16  C   LIG    1      -13.586  31.224  56.170  0.00  0.00    +0.173 C 
ATOM     17  C   LIG    1      -13.671  30.249  57.358  0.00  0.00    +0.177 C 
ATOM     22  C   LIG    1      -12.316  30.051  58.049  0.00  0.00    +0.166 C 
BRANCH  17  18
ATOM     18  O   LIG    1      -14.615  30.762  58.297  0.00  0.00    -0.386 OA
ATOM     19  H   LIG    1      -15.270  30.063  58.469  0.00  0.00    +0.210 HD
ENDBRANCH  17  18
BRANCH  16  20
ATOM     20  O   LIG    1      -13.098  30.535  55.019  0.00  0.00    -0.385 OA
ATOM     21  H   LIG    1      -13.456  29.632  55.044  0.00  0.00    +0.210 HD
ENDBRANCH  16  20
BRANCH  22  23
ATOM     23  O   LIG    1      -11.430  29.361  57.168  0.00  0.00    -0.387 OA
ATOM     24  H   LIG    1      -10.801  30.013  56.814  0.00  0.00    +0.210 HD
ENDBRANCH  22  23
BRANCH  12  13
ATOM     13  C   LIG    1      -12.770  33.530  55.409  0.00  0.00    +0.189 C 
BRANCH  13  14
ATOM     14  O   LIG    1      -12.007  33.199  54.264  0.00  0.00    -0.391 OA
ATOM     15  H   LIG    1      -11.294  33.857  54.194  0.00  0.00    +0.210 HD
ENDBRANCH  13  14
ENDBRANCH  12  13
ENDBRANCH   8  10
ENDBRANCH   5   8
BRANCH   4  25
ATOM     25  O   LIG    1       -9.382  29.047  61.734  0.00  0.00    -0.387 OA
ATOM     26  H   LIG    1       -8.550  29.117  62.234  0.00  0.00    +0.210 HD
ENDBRANCH   4  25
BRANCH   3  27
ATOM     27  O   LIG    1       -7.432  30.675  59.126  0.00  0.00    -0.384 OA
ATOM     28  H   LIG    1       -8.234  31.054  58.728  0.00  0.00    +0.210 HD
ENDBRANCH   3  27
ENDBRANCH   1   2
BRANCH   1  30
ATOM     30  C   LIG    1       -5.917  32.773  62.390  0.00  0.00    +0.183 C 
ATOM     31  C   LIG    1       -4.517  33.359  62.136  0.00  0.00    +0.178 C 
ATOM     35  O   LIG    1       -3.498  32.357  62.240  0.00  0.00    -0.341 OA
ATOM     36  C   LIG    1       -3.474  31.650  63.478  0.00  0.00    +0.282 C 
ATOM     37  C   LIG    1       -4.796  30.909  63.698  0.00  0.00    +0.201 C 
ATOM     56  C   LIG    1       -5.987  31.866  63.625  0.00  0.00    +0.179 C 
BRANCH  37  38
ATOM     38  O   LIG    1       -4.943  29.889  62.710  0.00  0.00    -0.384 OA
ATOM     39  H   LIG    1       -5.148  29.059  63.174  0.00  0.00    +0.210 HD
ENDBRANCH  37  38
BRANCH  56  57
ATOM     57  O   LIG    1       -6.004  32.656  64.810  0.00  0.00    -0.386 OA
ATOM     58  H   LIG    1       -5.185  32.470  65.299  0.00  0.00    +0.210 HD
ENDBRANCH  56  57
BRANCH  31  32
ATOM     32  C   LIG    1       -4.190  34.571  63.009  0.00  0.00    +0.190 C 
BRANCH  32  33
ATOM     33  O   LIG    1       -2.850  34.955  62.762  0.00  0.00    -0.392 OA
ATOM     34  H   LIG    1       -2.854  35.510  61.963  0.00  0.00    +0.210 HD
ENDBRANCH  32  33
ENDBRANCH  31  32
BRANCH  36  40
ATOM     40  O   LIG    1       -2.415  30.694  63.484  0.00  0.00    -0.340 OA
BRANCH  40  41
ATOM     41  C   LIG    1       -1.395  31.044  62.551  0.00  0.00    +0.183 C 
ATOM     42  C   LIG    1       -0.884  29.792  61.826  0.00  0.00    +0.178 C 
ATOM     46  O   LIG    1        0.235  30.107  60.989  0.00  0.00    -0.341 OA
ATOM     47  C   LIG    1        1.346  30.642  61.709  0.00  0.00    +0.279 C 
ATOM     48  C   LIG    1        0.951  31.937  62.421  0.00  0.00    +0.201 C 
ATOM     53  C   LIG    1       -0.268  31.736  63.320  0.00  0.00    +0.179 C 
BRANCH  48  49
ATOM     49  O   LIG    1        2.038  32.423  63.201  0.00  0.00    -0.384 OA
ATOM     50  H   LIG    1        2.092  33.384  63.060  0.00  0.00    +0.210 HD
ENDBRANCH  48  49
BRANCH  47  51
ATOM     51  O   LIG    1        1.927  29.686  62.594  0.00  0.00    -0.365 OA
ATOM     52  H   LIG    1        2.618  30.145  63.102  0.00  0.00    +0.213 HD
ENDBRANCH  47  51
BRANCH  53  54
ATOM     54  O   LIG    1       -0.741  33.013  63.757  0.00  0.00    -0.386 OA
ATOM     55  H   LIG    1       -1.080  33.493  62.982  0.00  0.00    +0.210 HD
ENDBRANCH  53  54
BRANCH  42  43
ATOM     43  C   LIG    1       -1.953  29.174  60.928  0.00  0.00    +0.190 C 
BRANCH  43  44
ATOM     44  O   LIG    1       -2.745  30.216  60.389  0.00  0.00    -0.392 OA
ATOM     45  H   LIG    1       -3.673  30.000  60.582  0.00  0.00    +0.210 HD
ENDBRANCH  43  44
ENDBRANCH  42  43
ENDBRANCH  40  41
ENDBRANCH  36  40
ENDBRANCH   1  30
TORSDOF 22
ENDMDL
MODEL 2
REMARK VINA RESULT:      -7.4      1.243      1.991
REMARK  Name = 41774
REMARK                            x       y       z     vdW  Elec       q    Type
REMARK                         _______ _______ _______ _____ _____    ______ ____
ROOT
ATOM      1  O   LIG    1       -6.728  31.110  61.078  0.00  0.00    -0.340 OA
ENDROOT
BRANCH   1   2
ATOM      2  C   LIG    1       -8.089  30.853  60.737  0.00  0.00    +0.282 C 
ATOM      3  C   LIG    1       -8.153  30.457  59.261  0.00  0.00    +0.200 C 
ATOM      4  C   LIG    1       -9.601  30.245  58.811  0.00  0.00    +0.167 C 
ATOM      5  C   LIG    1      -10.524  31.403  59.237  0.00  0.00    +0.114 C 
ATOM      6  C   LIG    1      -10.284  31.851  60.696  0.00  0.00    +0.138 C 
ATOM      7  C   LIG    1      -10.960  30.948  61.730  0.00  0.00    +0.039 C 
ATOM     29  O   LIG    1       -8.889  32.008  60.985  0.00  0.00    -0.344 OA
BRANCH   5   8
ATOM      8  N   LIG    1      -10.300  32.554  58.351  0.00  0.00    -0.300 NA
ATOM      9  H   LIG    1       -9.300  32.701  58.219  0.00  0.00    +0.123 HD
BRANCH   8  10
ATOM     10  C   LIG    1      -10.966  32.350  57.062  0.00  0.00    +0.109 C 
ATOM     11  C   LIG    1      -11.547  30.965  56.957  0.00  0.00    -0.002 C 
ATOM     12  C   LIG    1      -12.734  30.690  56.385  0.00  0.00    -0.016 C 
ATOM     16  C   LIG    1      -13.597  31.763  55.756  0.00  0.00    +0.173 C 
ATOM     17  C   LIG    1      -12.891  33.122  55.595  0.00  0.00    +0.177 C 
ATOM     22  C   LIG    1      -12.003  33.464  56.798  0.00  0.00    +0.166 C 
BRANCH  17  18
ATOM     18  O   LIG    1      -12.097  33.081  54.410  0.00  0.00    -0.386 OA
ATOM     19  H   LIG    1      -12.697  33.177  53.650  0.00  0.00    +0.210 HD
ENDBRANCH  17  18
BRANCH  16  20
ATOM     20  O   LIG    1      -14.757  31.918  56.571  0.00  0.00    -0.385 OA
ATOM     21  H   LIG    1      -15.535  31.823  55.997  0.00  0.00    +0.210 HD
ENDBRANCH  16  20
BRANCH  22  23
ATOM     23  O   LIG    1      -12.823  33.695  57.943  0.00  0.00    -0.387 OA
ATOM     24  H   LIG    1      -13.540  34.294  57.675  0.00  0.00    +0.210 HD
ENDBRANCH  22  23
BRANCH  12  13
ATOM     13  C   LIG    1      -13.263  29.286  56.319  0.00  0.00    +0.189 C 
BRANCH  13  14
ATOM     14  O   LIG    1      -12.345  28.465  55.622  0.00  0.00    -0.391 OA
ATOM     15  H   LIG    1      -11.572  29.016  55.408  0.00  0.00    +0.210 HD
ENDBRANCH  13  14
ENDBRANCH  12  13
ENDBRANCH   8  10
ENDBRANCH   5   8
BRANCH   4  25
ATOM     25  O   LIG    1      -10.071  29.021  59.375  0.00  0.00    -0.387 OA
ATOM     26  H   LIG    1       -9.931  28.321  58.713  0.00  0.00    +0.210 HD
ENDBRANCH   4  25
BRANCH   3  27
ATOM     27  O   LIG    1       -7.549  31.488  58.482  0.00  0.00    -0.384 OA
ATOM     28  H   LIG    1       -6.684  31.688  58.880  0.00  0.00    +0.210 HD
ENDBRANCH   3  27
ENDBRANCH   1   2
BRANCH   1  30
ATOM     30  C   LIG    1       -6.628  31.887  62.276  0.00  0.00    +0.183 C 
ATOM     31  C   LIG    1       -5.420  32.830  62.141  0.00  0.00    +0.178 C 
ATOM     35  O   LIG    1       -4.180  32.120  62.254  0.00  0.00    -0.341 OA
ATOM     36  C   LIG    1       -4.029  31.361  63.451  0.00  0.00    +0.282 C 
ATOM     37  C   LIG    1       -5.120  30.291  63.549  0.00  0.00    +0.201 C 
ATOM     56  C   LIG    1       -6.515  30.911  63.454  0.00  0.00    +0.179 C 
BRANCH  37  38
ATOM     38  O   LIG    1       -4.950  29.337  62.500  0.00  0.00    -0.384 OA
ATOM     39  H   LIG    1       -3.997  29.161  62.416  0.00  0.00    +0.210 HD
ENDBRANCH  37  38
BRANCH  56  57
ATOM     57  O   LIG    1       -6.793  31.587  64.676  0.00  0.00    -0.386 OA
ATOM     58  H   LIG    1       -6.772  32.542  64.494  0.00  0.00    +0.210 HD
ENDBRANCH  56  57
BRANCH  31  32
ATOM     32  C   LIG    1       -5.462  34.023  63.097  0.00  0.00    +0.190 C 
BRANCH  32  33
ATOM     33  O   LIG    1       -4.240  34.729  62.989  0.00  0.00    -0.392 OA
ATOM     34  H   LIG    1       -4.260  35.439  63.653  0.00  0.00    +0.210 HD
ENDBRANCH  32  33
ENDBRANCH  31  32
BRANCH  36  40
ATOM     40  O   LIG    1       -2.759  30.713  63.472  0.00  0.00    -0.340 OA
BRANCH  40  41
ATOM     41  C   LIG    1       -1.846  31.331  62.567  0.00  0.00    +0.183 C 
ATOM     42  C   LIG    1       -1.033  30.266  61.820  0.00  0.00    +0.178 C 
ATOM     46  O   LIG    1       -0.017  30.873  61.012  0.00  0.00    -0.341 OA
ATOM     47  C   LIG    1        0.918  31.645  61.766  0.00  0.00    +0.279 C 
ATOM     48  C   LIG    1        0.207  32.780  62.503  0.00  0.00    +0.201 C 
ATOM     53  C   LIG    1       -0.935  32.258  63.373  0.00  0.00    +0.179 C 
BRANCH  48  49
ATOM     49  O   LIG    1        1.129  33.498  63.314  0.00  0.00    -0.384 OA
ATOM     50  H   LIG    1        1.994  33.470  62.870  0.00  0.00    +0.210 HD
ENDBRANCH  48  49
BRANCH  47  51
ATOM     51  O   LIG    1        1.708  30.837  62.637  0.00  0.00    -0.365 OA
ATOM     52  H   LIG    1        2.550  30.663  62.184  0.00  0.00    +0.213 HD
ENDBRANCH  47  51
BRANCH  53  54
ATOM     54  O   LIG    1       -1.715  33.366  63.833  0.00  0.00    -0.386 OA
ATOM     55  H   LIG    1       -2.596  33.035  64.079  0.00  0.00    +0.210 HD
ENDBRANCH  53  54
BRANCH  42  43
ATOM     43  C   LIG    1       -1.904  29.429  60.887  0.00  0.00    +0.190 C 
BRANCH  43  44
ATOM     44  O   LIG    1       -2.872  30.276  60.296  0.00  0.00    -0.392 OA
ATOM     45  H   LIG    1       -3.746  29.919  60.530  0.00  0.00    +0.210 HD
ENDBRANCH  43  44
ENDBRANCH  42  43
ENDBRANCH  40  41
ENDBRANCH  36  40
ENDBRANCH   1  30
TORSDOF 22
ENDMDL
MODEL 3
REMARK VINA RESULT:      -7.1      2.095      4.153
REMARK  Name = 41774
REMARK                            x       y       z     vdW  Elec       q    Type
REMARK                         _______ _______ _______ _____ _____    ______ ____
ROOT
ATOM      1  O   LIG    1       -3.417  31.355  62.367  0.00  0.00    -0.340 OA
ENDROOT
BRANCH   1   2
ATOM      2  C   LIG    1       -4.727  31.633  62.859  0.00  0.00    +0.282 C 
ATOM      3  C   LIG    1       -5.686  30.575  62.309  0.00  0.00    +0.200 C 
ATOM      4  C   LIG    1       -7.127  30.865  62.737  0.00  0.00    +0.167 C 
ATOM      5  C   LIG    1       -7.530  32.332  62.491  0.00  0.00    +0.114 C 
ATOM      6  C   LIG    1       -6.436  33.332  62.927  0.00  0.00    +0.138 C 
ATOM      7  C   LIG    1       -6.424  33.602  64.433  0.00  0.00    +0.039 C 
ATOM     29  O   LIG    1       -5.138  32.941  62.465  0.00  0.00    -0.344 OA
BRANCH   5   8
ATOM      8  N   LIG    1       -7.798  32.528  61.059  0.00  0.00    -0.300 NA
ATOM      9  H   LIG    1       -7.022  32.165  60.507  0.00  0.00    +0.123 HD
BRANCH   8  10
ATOM     10  C   LIG    1       -9.052  31.876  60.675  0.00  0.00    +0.109 C 
ATOM     11  C   LIG    1       -9.949  32.816  59.914  0.00  0.00    -0.002 C 
ATOM     12  C   LIG    1      -10.698  32.449  58.857  0.00  0.00    -0.016 C 
ATOM     16  C   LIG    1      -10.731  31.026  58.344  0.00  0.00    +0.173 C 
ATOM     17  C   LIG    1      -10.058  30.005  59.280  0.00  0.00    +0.177 C 
ATOM     22  C   LIG    1       -8.777  30.557  59.920  0.00  0.00    +0.166 C 
BRANCH  17  18
ATOM     18  O   LIG    1      -10.987  29.648  60.302  0.00  0.00    -0.386 OA
ATOM     19  H   LIG    1      -10.476  29.393  61.089  0.00  0.00    +0.210 HD
ENDBRANCH  17  18
BRANCH  16  20
ATOM     20  O   LIG    1      -10.085  31.008  57.072  0.00  0.00    -0.385 OA
ATOM     21  H   LIG    1       -9.219  31.438  57.177  0.00  0.00    +0.210 HD
ENDBRANCH  16  20
BRANCH  22  23
ATOM     23  O   LIG    1       -7.780  30.731  58.913  0.00  0.00    -0.387 OA
ATOM     24  H   LIG    1       -7.725  31.683  58.717  0.00  0.00    +0.210 HD
ENDBRANCH  22  23
BRANCH  12  13
ATOM     13  C   LIG    1      -11.566  33.438  58.134  0.00  0.00    +0.189 C 
BRANCH  13  14
ATOM     14  O   LIG    1      -10.932  33.838  56.934  0.00  0.00    -0.391 OA
ATOM     15  H   LIG    1      -11.450  34.575  56.567  0.00  0.00    +0.210 HD
ENDBRANCH  13  14
ENDBRANCH  12  13
ENDBRANCH   8  10
ENDBRANCH   5   8
BRANCH   4  25
ATOM     25  O   LIG    1       -7.253  30.558  64.126  0.00  0.00    -0.387 OA
ATOM     26  H   LIG    1       -7.371  31.398  64.602  0.00  0.00    +0.210 HD
ENDBRANCH   4  25
BRANCH   3  27
ATOM     27  O   LIG    1       -5.595  30.569  60.885  0.00  0.00    -0.384 OA
ATOM     28  H   LIG    1       -6.500  30.511  60.535  0.00  0.00    +0.210 HD
ENDBRANCH   3  27
ENDBRANCH   1   2
BRANCH   1  30
ATOM     30  C   LIG    1       -2.997  30.034  62.720  0.00  0.00    +0.183 C 
ATOM     31  C   LIG    1       -2.020  30.137  63.905  0.00  0.00    +0.178 C 
ATOM     35  O   LIG    1       -0.748  30.655  63.497  0.00  0.00    -0.341 OA
ATOM     36  C   LIG    1       -0.111  29.928  62.449  0.00  0.00    +0.282 C 
ATOM     37  C   LIG    1       -0.976  29.938  61.186  0.00  0.00    +0.201 C 
ATOM     56  C   LIG    1       -2.378  29.395  61.470  0.00  0.00    +0.179 C 
BRANCH  37  38
ATOM     38  O   LIG    1       -1.074  31.272  60.684  0.00  0.00    -0.384 OA
ATOM     39  H   LIG    1       -0.727  31.868  61.369  0.00  0.00    +0.210 HD
ENDBRANCH  37  38
BRANCH  56  57
ATOM     57  O   LIG    1       -2.290  27.984  61.636  0.00  0.00    -0.386 OA
ATOM     58  H   LIG    1       -2.858  27.572  60.963  0.00  0.00    +0.210 HD
ENDBRANCH  56  57
BRANCH  31  32
ATOM     32  C   LIG    1       -1.861  28.832  64.685  0.00  0.00    +0.190 C 
BRANCH  32  33
ATOM     33  O   LIG    1       -3.057  28.084  64.558  0.00  0.00    -0.392 OA
ATOM     34  H   LIG    1       -2.916  27.238  65.017  0.00  0.00    +0.210 HD
ENDBRANCH  32  33
ENDBRANCH  31  32
BRANCH  36  40
ATOM     40  O   LIG    1        1.152  30.512  62.135  0.00  0.00    -0.340 OA
BRANCH  40  41
ATOM     41  C   LIG    1        1.593  31.384  63.173  0.00  0.00    +0.183 C 
ATOM     42  C   LIG    1        2.137  32.689  62.578  0.00  0.00    +0.178 C 
ATOM     46  O   LIG    1        2.711  33.516  63.597  0.00  0.00    -0.341 OA
ATOM     47  C   LIG    1        3.800  32.895  64.281  0.00  0.00    +0.279 C 
ATOM     48  C   LIG    1        3.340  31.608  64.967  0.00  0.00    +0.201 C 
ATOM     53  C   LIG    1        2.668  30.654  63.981  0.00  0.00    +0.179 C 
BRANCH  48  49
ATOM     49  O   LIG    1        4.443  30.953  65.580  0.00  0.00    -0.384 OA
ATOM     50  H   LIG    1        4.428  31.175  66.527  0.00  0.00    +0.210 HD
ENDBRANCH  48  49
BRANCH  47  51
ATOM     51  O   LIG    1        4.926  32.690  63.430  0.00  0.00    -0.365 OA
ATOM     52  H   LIG    1        5.152  33.550  63.037  0.00  0.00    +0.213 HD
ENDBRANCH  47  51
BRANCH  53  54
ATOM     54  O   LIG    1        2.039  29.596  64.710  0.00  0.00    -0.386 OA
ATOM     55  H   LIG    1        2.462  28.759  64.454  0.00  0.00    +0.210 HD
ENDBRANCH  53  54
BRANCH  42  43
ATOM     43  C   LIG    1        1.043  33.511  61.900  0.00  0.00    +0.190 C 
BRANCH  43  44
ATOM     44  O   LIG    1       -0.165  33.325  62.614  0.00  0.00    -0.392 OA
ATOM     45  H   LIG    1       -0.783  34.016  62.317  0.00  0.00    +0.210 HD
ENDBRANCH  43  44
ENDBRANCH  42  43
ENDBRANCH  40  41
ENDBRANCH  36  40
ENDBRANCH   1  30
TORSDOF 22
ENDMDL
MODEL 4
REMARK VINA RESULT:      -7.1      2.793      5.572
REMARK  Name = 41774
REMARK                            x       y       z     vdW  Elec       q    Type
REMARK                         _______ _______ _______ _____ _____    ______ ____
ROOT
ATOM      1  O   LIG    1       -1.904  32.323  61.922  0.00  0.00    -0.340 OA
ENDROOT
BRANCH   1   2
ATOM      2  C   LIG    1       -3.210  32.006  62.400  0.00  0.00    +0.282 C 
ATOM      3  C   LIG    1       -3.542  30.571  61.989  0.00  0.00    +0.200 C 
ATOM      4  C   LIG    1       -4.967  30.196  62.404  0.00  0.00    +0.167 C 
ATOM      5  C   LIG    1       -5.998  31.267  61.998  0.00  0.00    +0.114 C 
ATOM      6  C   LIG    1       -5.517  32.703  62.301  0.00  0.00    +0.138 C 
ATOM      7  C   LIG    1       -5.691  33.108  63.766  0.00  0.00    +0.039 C 
ATOM     29  O   LIG    1       -4.169  32.919  61.866  0.00  0.00    -0.344 OA
BRANCH   5   8
ATOM      8  N   LIG    1       -6.270  31.158  60.558  0.00  0.00    -0.300 NA
ATOM      9  H   LIG    1       -5.994  30.237  60.221  0.00  0.00    +0.123 HD
BRANCH   8  10
ATOM     10  C   LIG    1       -7.687  31.406  60.280  0.00  0.00    +0.109 C 
ATOM     11  C   LIG    1       -7.997  31.233  58.816  0.00  0.00    -0.002 C 
ATOM     12  C   LIG    1       -9.123  30.662  58.350  0.00  0.00    -0.016 C 
ATOM     16  C   LIG    1      -10.215  30.158  59.268  0.00  0.00    +0.173 C 
ATOM     17  C   LIG    1      -10.049  30.589  60.737  0.00  0.00    +0.177 C 
ATOM     22  C   LIG    1       -8.585  30.546  61.195  0.00  0.00    +0.166 C 
BRANCH  17  18
ATOM     18  O   LIG    1      -10.555  31.915  60.879  0.00  0.00    -0.386 OA
ATOM     19  H   LIG    1      -10.700  32.076  61.828  0.00  0.00    +0.210 HD
ENDBRANCH  17  18
BRANCH  16  20
ATOM     20  O   LIG    1      -10.229  28.734  59.185  0.00  0.00    -0.385 OA
ATOM     21  H   LIG    1       -9.863  28.487  58.319  0.00  0.00    +0.210 HD
ENDBRANCH  16  20
BRANCH  22  23
ATOM     23  O   LIG    1       -8.140  29.190  61.237  0.00  0.00    -0.387 OA
ATOM     24  H   LIG    1       -8.750  28.665  60.691  0.00  0.00    +0.210 HD
ENDBRANCH  22  23
BRANCH  12  13
ATOM     13  C   LIG    1       -9.370  30.510  56.876  0.00  0.00    +0.189 C 
BRANCH  13  14
ATOM     14  O   LIG    1      -10.711  30.116  56.658  0.00  0.00    -0.391 OA
ATOM     15  H   LIG    1      -11.017  30.571  55.854  0.00  0.00    +0.210 HD
ENDBRANCH  13  14
ENDBRANCH  12  13
ENDBRANCH   8  10
ENDBRANCH   5   8
BRANCH   4  25
ATOM     25  O   LIG    1       -4.989  30.017  63.820  0.00  0.00    -0.387 OA
ATOM     26  H   LIG    1       -5.121  30.893  64.224  0.00  0.00    +0.210 HD
ENDBRANCH   4  25
BRANCH   3  27
ATOM     27  O   LIG    1       -3.402  30.454  60.574  0.00  0.00    -0.384 OA
ATOM     28  H   LIG    1       -4.217  30.047  60.232  0.00  0.00    +0.210 HD
ENDBRANCH   3  27
ENDBRANCH   1   2
BRANCH   1  30
ATOM     30  C   LIG    1       -0.984  31.257  62.173  0.00  0.00    +0.183 C 
ATOM     31  C   LIG    1       -0.801  31.123  63.695  0.00  0.00    +0.178 C 
ATOM     35  O   LIG    1       -0.019  32.199  64.230  0.00  0.00    -0.341 OA
ATOM     36  C   LIG    1        1.266  32.362  63.634  0.00  0.00    +0.282 C 
ATOM     37  C   LIG    1        1.129  32.665  62.139  0.00  0.00    +0.201 C 
ATOM     56  C   LIG    1        0.317  31.581  61.426  0.00  0.00    +0.179 C 
BRANCH  37  38
ATOM     38  O   LIG    1        0.492  33.931  61.963  0.00  0.00    -0.384 OA
ATOM     39  H   LIG    1       -0.253  33.973  62.587  0.00  0.00    +0.210 HD
ENDBRANCH  37  38
BRANCH  56  57
ATOM     57  O   LIG    1        1.121  30.412  61.318  0.00  0.00    -0.386 OA
ATOM     58  H   LIG    1        1.009  29.901  62.137  0.00  0.00    +0.210 HD
ENDBRANCH  56  57
BRANCH  31  32
ATOM     32  C   LIG    1       -0.246  29.767  64.130  0.00  0.00    +0.190 C 
BRANCH  32  33
ATOM     33  O   LIG    1       -1.102  28.753  63.639  0.00  0.00    -0.392 OA
ATOM     34  H   LIG    1       -0.918  28.658  62.688  0.00  0.00    +0.210 HD
ENDBRANCH  32  33
ENDBRANCH  31  32
BRANCH  36  40
ATOM     40  O   LIG    1        1.966  33.441  64.250  0.00  0.00    -0.340 OA
BRANCH  40  41
ATOM     41  C   LIG    1        2.740  32.992  65.359  0.00  0.00    +0.183 C 
ATOM     42  C   LIG    1        2.196  33.586  66.665  0.00  0.00    +0.178 C 
ATOM     46  O   LIG    1        3.046  33.256  67.769  0.00  0.00    -0.341 OA
ATOM     47  C   LIG    1        4.379  33.748  67.623  0.00  0.00    +0.279 C 
ATOM     48  C   LIG    1        5.034  33.159  66.374  0.00  0.00    +0.201 C 
ATOM     53  C   LIG    1        4.192  33.411  65.124  0.00  0.00    +0.179 C 
BRANCH  48  49
ATOM     49  O   LIG    1        6.332  33.711  66.188  0.00  0.00    -0.384 OA
ATOM     50  H   LIG    1        6.835  33.096  65.628  0.00  0.00    +0.210 HD
ENDBRANCH  48  49
BRANCH  47  51
ATOM     51  O   LIG    1        4.435  35.173  67.651  0.00  0.00    -0.365 OA
ATOM     52  H   LIG    1        4.060  35.460  68.501  0.00  0.00    +0.213 HD
ENDBRANCH  47  51
BRANCH  53  54
ATOM     54  O   LIG    1        4.715  32.632  64.044  0.00  0.00    -0.386 OA
ATOM     55  H   LIG    1        5.122  33.238  63.402  0.00  0.00    +0.210 HD
ENDBRANCH  53  54
BRANCH  42  43
ATOM     43  C   LIG    1        0.804  33.056  66.999  0.00  0.00    +0.190 C 
BRANCH  43  44
ATOM     44  O   LIG    1       -0.157  33.907  66.402  0.00  0.00    -0.392 OA
ATOM     45  H   LIG    1       -0.346  33.549  65.517  0.00  0.00    +0.210 HD
ENDBRANCH  43  44
ENDBRANCH  42  43
ENDBRANCH  40  41
ENDBRANCH  36  40
ENDBRANCH   1  30
TORSDOF 22
ENDMDL
MODEL 5
REMARK VINA RESULT:      -7.0      4.006     12.518
REMARK  Name = 41774
REMARK                            x       y       z     vdW  Elec       q    Type
REMARK                         _______ _______ _______ _____ _____    ______ ____
ROOT
ATOM      1  O   LIG    1       -1.673  31.770  64.144  0.00  0.00    -0.340 OA
ENDROOT
BRANCH   1   2
ATOM      2  C   LIG    1       -0.705  30.723  64.156  0.00  0.00    +0.282 C 
ATOM      3  C   LIG    1       -0.794  29.996  65.499  0.00  0.00    +0.200 C 
ATOM      4  C   LIG    1        0.279  28.908  65.607  0.00  0.00    +0.167 C 
ATOM      5  C   LIG    1        1.677  29.420  65.210  0.00  0.00    +0.114 C 
ATOM      6  C   LIG    1        1.655  30.281  63.928  0.00  0.00    +0.138 C 
ATOM      7  C   LIG    1        1.605  29.456  62.641  0.00  0.00    +0.039 C 
ATOM     29  O   LIG    1        0.604  31.254  63.955  0.00  0.00    -0.344 OA
BRANCH   5   8
ATOM      8  N   LIG    1        2.228  30.227  66.307  0.00  0.00    -0.300 NA
ATOM      9  H   LIG    1        2.204  29.695  67.176  0.00  0.00    +0.123 HD
BRANCH   8  10
ATOM     10  C   LIG    1        3.596  30.651  66.000  0.00  0.00    +0.109 C 
ATOM     11  C   LIG    1        3.651  32.113  65.646  0.00  0.00    -0.002 C 
ATOM     12  C   LIG    1        4.639  32.943  66.032  0.00  0.00    -0.016 C 
ATOM     16  C   LIG    1        5.822  32.468  66.848  0.00  0.00    +0.173 C 
ATOM     17  C   LIG    1        5.929  30.937  66.966  0.00  0.00    +0.177 C 
ATOM     22  C   LIG    1        4.560  30.268  67.145  0.00  0.00    +0.166 C 
BRANCH  17  18
ATOM     18  O   LIG    1        6.555  30.436  65.786  0.00  0.00    -0.386 OA
ATOM     19  H   LIG    1        7.498  30.671  65.830  0.00  0.00    +0.210 HD
ENDBRANCH  17  18
BRANCH  16  20
ATOM     20  O   LIG    1        5.709  33.042  68.149  0.00  0.00    -0.385 OA
ATOM     21  H   LIG    1        5.021  33.728  68.108  0.00  0.00    +0.210 HD
ENDBRANCH  16  20
BRANCH  22  23
ATOM     23  O   LIG    1        4.021  30.622  68.419  0.00  0.00    -0.387 OA
ATOM     24  H   LIG    1        3.192  30.128  68.535  0.00  0.00    +0.210 HD
ENDBRANCH  22  23
BRANCH  12  13
ATOM     13  C   LIG    1        4.631  34.396  65.652  0.00  0.00    +0.189 C 
BRANCH  13  14
ATOM     14  O   LIG    1        5.962  34.862  65.534  0.00  0.00    -0.391 OA
ATOM     15  H   LIG    1        5.988  35.470  64.776  0.00  0.00    +0.210 HD
ENDBRANCH  13  14
ENDBRANCH  12  13
ENDBRANCH   8  10
ENDBRANCH   5   8
BRANCH   4  25
ATOM     25  O   LIG    1       -0.097  27.823  64.759  0.00  0.00    -0.387 OA
ATOM     26  H   LIG    1        0.508  27.084  64.944  0.00  0.00    +0.210 HD
ENDBRANCH   4  25
BRANCH   3  27
ATOM     27  O   LIG    1       -0.626  30.948  66.549  0.00  0.00    -0.384 OA
ATOM     28  H   LIG    1       -1.506  31.137  66.915  0.00  0.00    +0.210 HD
ENDBRANCH   3  27
ENDBRANCH   1   2
BRANCH   1  30
ATOM     30  C   LIG    1       -1.883  32.270  62.820  0.00  0.00    +0.183 C 
ATOM     31  C   LIG    1       -2.791  33.509  62.909  0.00  0.00    +0.178 C 
ATOM     35  O   LIG    1       -4.146  33.151  63.210  0.00  0.00    -0.341 OA
ATOM     36  C   LIG    1       -4.737  32.222  62.304  0.00  0.00    +0.282 C 
ATOM     37  C   LIG    1       -3.959  30.903  62.305  0.00  0.00    +0.201 C 
ATOM     56  C   LIG    1       -2.481  31.131  61.984  0.00  0.00    +0.179 C 
BRANCH  37  38
ATOM     38  O   LIG    1       -4.078  30.278  63.583  0.00  0.00    -0.384 OA
ATOM     39  H   LIG    1       -3.780  29.357  63.487  0.00  0.00    +0.210 HD
ENDBRANCH  37  38
BRANCH  56  57
ATOM     57  O   LIG    1       -2.361  31.430  60.596  0.00  0.00    -0.386 OA
ATOM     58  H   LIG    1       -1.474  31.800  60.451  0.00  0.00    +0.210 HD
ENDBRANCH  56  57
BRANCH  31  32
ATOM     32  C   LIG    1       -2.719  34.413  61.678  0.00  0.00    +0.190 C 
BRANCH  32  33
ATOM     33  O   LIG    1       -2.304  35.702  62.091  0.00  0.00    -0.392 OA
ATOM     34  H   LIG    1       -1.753  35.585  62.884  0.00  0.00    +0.210 HD
ENDBRANCH  32  33
ENDBRANCH  31  32
BRANCH  36  40
ATOM     40  O   LIG    1       -6.086  31.950  62.682  0.00  0.00    -0.340 OA
BRANCH  40  41
ATOM     41  C   LIG    1       -7.009  32.567  61.787  0.00  0.00    +0.183 C 
ATOM     42  C   LIG    1       -8.087  33.326  62.573  0.00  0.00    +0.178 C 
ATOM     46  O   LIG    1       -9.098  33.831  61.694  0.00  0.00    -0.341 OA
ATOM     47  C   LIG    1       -9.774  32.808  60.962  0.00  0.00    +0.279 C 
ATOM     48  C   LIG    1       -8.786  32.030  60.092  0.00  0.00    +0.201 C 
ATOM     53  C   LIG    1       -7.628  31.471  60.917  0.00  0.00    +0.179 C 
BRANCH  48  49
ATOM     49  O   LIG    1       -9.449  30.962  59.425  0.00  0.00    -0.384 OA
ATOM     50  H   LIG    1      -10.114  30.602  60.036  0.00  0.00    +0.210 HD
ENDBRANCH  48  49
BRANCH  47  51
ATOM     51  O   LIG    1      -10.546  31.958  61.808  0.00  0.00    -0.365 OA
ATOM     52  H   LIG    1      -11.483  32.168  61.650  0.00  0.00    +0.213 HD
ENDBRANCH  47  51
BRANCH  53  54
ATOM     54  O   LIG    1       -6.619  30.978  60.031  0.00  0.00    -0.386 OA
ATOM     55  H   LIG    1       -5.981  30.463  60.554  0.00  0.00    +0.210 HD
ENDBRANCH  53  54
BRANCH  42  43
ATOM     43  C   LIG    1       -7.511  34.522  63.327  0.00  0.00    +0.190 C 
BRANCH  43  44
ATOM     44  O   LIG    1       -6.457  35.073  62.557  0.00  0.00    -0.392 OA
ATOM     45  H   LIG    1       -5.695  35.182  63.152  0.00  0.00    +0.210 HD
ENDBRANCH  43  44
ENDBRANCH  42  43
ENDBRANCH  40  41
ENDBRANCH  36  40
ENDBRANCH   1  30
TORSDOF 22
ENDMDL
MODEL 6
REMARK VINA RESULT:      -6.9      1.618      2.301
REMARK  Name = 41774
REMARK                            x       y       z     vdW  Elec       q    Type
REMARK                         _______ _______ _______ _____ _____    ______ ____
ROOT
ATOM      1  O   LIG    1       -7.220  31.372  62.179  0.00  0.00    -0.340 OA
ENDROOT
BRANCH   1   2
ATOM      2  C   LIG    1       -8.554  31.864  62.069  0.00  0.00    +0.282 C 
ATOM      3  C   LIG    1       -9.512  30.672  62.060  0.00  0.00    +0.200 C 
ATOM      4  C   LIG    1      -10.959  31.131  61.862  0.00  0.00    +0.167 C 
ATOM      5  C   LIG    1      -11.107  32.123  60.692  0.00  0.00    +0.114 C 
ATOM      6  C   LIG    1      -10.003  33.204  60.684  0.00  0.00    +0.138 C 
ATOM      7  C   LIG    1      -10.261  34.346  61.668  0.00  0.00    +0.039 C 
ATOM     29  O   LIG    1       -8.701  32.640  60.881  0.00  0.00    -0.344 OA
BRANCH   5   8
ATOM      8  N   LIG    1      -11.051  31.386  59.422  0.00  0.00    -0.300 NA
ATOM      9  H   LIG    1      -10.777  30.420  59.592  0.00  0.00    +0.123 HD
BRANCH   8  10
ATOM     10  C   LIG    1      -12.344  31.442  58.735  0.00  0.00    +0.109 C 
ATOM     11  C   LIG    1      -12.358  32.513  57.677  0.00  0.00    -0.002 C 
ATOM     12  C   LIG    1      -12.952  32.375  56.477  0.00  0.00    -0.016 C 
ATOM     16  C   LIG    1      -13.699  31.119  56.083  0.00  0.00    +0.173 C 
ATOM     17  C   LIG    1      -13.942  30.142  57.248  0.00  0.00    +0.177 C 
ATOM     22  C   LIG    1      -12.738  30.050  58.194  0.00  0.00    +0.166 C 
BRANCH  17  18
ATOM     18  O   LIG    1      -15.088  30.583  57.975  0.00  0.00    -0.386 OA
ATOM     19  H   LIG    1      -15.860  30.104  57.627  0.00  0.00    +0.210 HD
ENDBRANCH  17  18
BRANCH  16  20
ATOM     20  O   LIG    1      -12.944  30.468  55.062  0.00  0.00    -0.385 OA
ATOM     21  H   LIG    1      -12.521  29.689  55.462  0.00  0.00    +0.210 HD
ENDBRANCH  16  20
BRANCH  22  23
ATOM     23  O   LIG    1      -11.648  29.427  57.515  0.00  0.00    -0.387 OA
ATOM     24  H   LIG    1      -10.942  29.279  58.167  0.00  0.00    +0.210 HD
ENDBRANCH  22  23
BRANCH  12  13
ATOM     13  C   LIG    1      -12.923  33.479  55.459  0.00  0.00    +0.189 C 
BRANCH  13  14
ATOM     14  O   LIG    1      -12.064  33.120  54.394  0.00  0.00    -0.391 OA
ATOM     15  H   LIG    1      -11.590  32.315  54.665  0.00  0.00    +0.210 HD
ENDBRANCH  13  14
ENDBRANCH  12  13
ENDBRANCH   8  10
ENDBRANCH   5   8
BRANCH   4  25
ATOM     25  O   LIG    1      -11.404  31.744  63.073  0.00  0.00    -0.387 OA
ATOM     26  H   LIG    1      -12.052  31.145  63.483  0.00  0.00    +0.210 HD
ENDBRANCH   4  25
BRANCH   3  27
ATOM     27  O   LIG    1       -9.135  29.789  61.003  0.00  0.00    -0.384 OA
ATOM     28  H   LIG    1       -9.789  29.891  60.290  0.00  0.00    +0.210 HD
ENDBRANCH   3  27
ENDBRANCH   1   2
BRANCH   1  30
ATOM     30  C   LIG    1       -6.511  32.017  63.242  0.00  0.00    +0.183 C 
ATOM     31  C   LIG    1       -5.939  33.342  62.708  0.00  0.00    +0.178 C 
ATOM     35  O   LIG    1       -4.830  33.121  61.827  0.00  0.00    -0.341 OA
ATOM     36  C   LIG    1       -3.761  32.359  62.385  0.00  0.00    +0.282 C 
ATOM     37  C   LIG    1       -4.248  30.963  62.782  0.00  0.00    +0.201 C 
ATOM     56  C   LIG    1       -5.437  31.042  63.741  0.00  0.00    +0.179 C 
BRANCH  37  38
ATOM     38  O   LIG    1       -4.628  30.238  61.611  0.00  0.00    -0.384 OA
ATOM     39  H   LIG    1       -4.275  29.336  61.699  0.00  0.00    +0.210 HD
ENDBRANCH  37  38
BRANCH  56  57
ATOM     57  O   LIG    1       -4.960  31.455  65.018  0.00  0.00    -0.386 OA
ATOM     58  H   LIG    1       -4.850  30.657  65.562  0.00  0.00    +0.210 HD
ENDBRANCH  56  57
BRANCH  31  32
ATOM     32  C   LIG    1       -5.581  34.343  63.805  0.00  0.00    +0.190 C 
BRANCH  32  33
ATOM     33  O   LIG    1       -6.447  35.458  63.696  0.00  0.00    -0.392 OA
ATOM     34  H   LIG    1       -7.340  35.151  63.930  0.00  0.00    +0.210 HD
ENDBRANCH  32  33
ENDBRANCH  31  32
BRANCH  36  40
ATOM     40  O   LIG    1       -2.705  32.216  61.436  0.00  0.00    -0.340 OA
BRANCH  40  41
ATOM     41  C   LIG    1       -1.536  32.917  61.852  0.00  0.00    +0.183 C 
ATOM     42  C   LIG    1       -1.161  33.988  60.819  0.00  0.00    +0.178 C 
ATOM     46  O   LIG    1        0.088  34.605  61.154  0.00  0.00    -0.341 OA
ATOM     47  C   LIG    1        1.179  33.684  61.199  0.00  0.00    +0.279 C 
ATOM     48  C   LIG    1        0.926  32.604  62.252  0.00  0.00    +0.201 C 
ATOM     53  C   LIG    1       -0.409  31.897  62.025  0.00  0.00    +0.179 C 
BRANCH  48  49
ATOM     49  O   LIG    1        1.977  31.645  62.240  0.00  0.00    -0.384 OA
ATOM     50  H   LIG    1        1.862  31.094  61.447  0.00  0.00    +0.210 HD
ENDBRANCH  48  49
BRANCH  47  51
ATOM     51  O   LIG    1        1.478  33.137  59.916  0.00  0.00    -0.365 OA
ATOM     52  H   LIG    1        1.908  33.838  59.397  0.00  0.00    +0.213 HD
ENDBRANCH  47  51
BRANCH  53  54
ATOM     54  O   LIG    1       -0.708  31.087  63.166  0.00  0.00    -0.386 OA
ATOM     55  H   LIG    1       -1.488  30.546  62.957  0.00  0.00    +0.210 HD
ENDBRANCH  53  54
BRANCH  42  43
ATOM     43  C   LIG    1       -2.202  35.102  60.744  0.00  0.00    +0.190 C 
BRANCH  43  44
ATOM     44  O   LIG    1       -2.586  35.448  62.063  0.00  0.00    -0.392 OA
ATOM     45  H   LIG    1       -1.876  35.148  62.656  0.00  0.00    +0.210 HD
ENDBRANCH  43  44
ENDBRANCH  42  43
ENDBRANCH  40  41
ENDBRANCH  36  40
ENDBRANCH   1  30
TORSDOF 22
ENDMDL
MODEL 7
REMARK VINA RESULT:      -6.8      2.006     10.809
REMARK  Name = 41774
REMARK                            x       y       z     vdW  Elec       q    Type
REMARK                         _______ _______ _______ _____ _____    ______ ____
ROOT
ATOM      1  O   LIG    1       -8.172  30.635  61.276  0.00  0.00    -0.340 OA
ENDROOT
BRANCH   1   2
ATOM      2  C   LIG    1       -7.351  31.182  62.307  0.00  0.00    +0.282 C 
ATOM      3  C   LIG    1       -6.224  31.985  61.655  0.00  0.00    +0.200 C 
ATOM      4  C   LIG    1       -5.258  32.532  62.710  0.00  0.00    +0.167 C 
ATOM      5  C   LIG    1       -4.819  31.454  63.720  0.00  0.00    +0.114 C 
ATOM      6  C   LIG    1       -5.996  30.581  64.209  0.00  0.00    +0.138 C 
ATOM      7  C   LIG    1       -6.836  31.245  65.301  0.00  0.00    +0.039 C 
ATOM     29  O   LIG    1       -6.821  30.139  63.124  0.00  0.00    -0.344 OA
BRANCH   5   8
ATOM      8  N   LIG    1       -3.817  30.582  63.094  0.00  0.00    -0.300 NA
ATOM      9  H   LIG    1       -4.156  30.254  62.191  0.00  0.00    +0.123 HD
BRANCH   8  10
ATOM     10  C   LIG    1       -2.542  31.288  62.940  0.00  0.00    +0.109 C 
ATOM     11  C   LIG    1       -1.403  30.499  63.531  0.00  0.00    -0.002 C 
ATOM     12  C   LIG    1       -0.180  30.414  62.974  0.00  0.00    -0.016 C 
ATOM     16  C   LIG    1        0.179  31.139  61.696  0.00  0.00    +0.173 C 
ATOM     17  C   LIG    1       -0.870  32.171  61.243  0.00  0.00    +0.177 C 
ATOM     22  C   LIG    1       -2.306  31.680  61.465  0.00  0.00    +0.166 C 
BRANCH  17  18
ATOM     18  O   LIG    1       -0.660  33.379  61.974  0.00  0.00    -0.386 OA
ATOM     19  H   LIG    1       -0.675  34.115  61.338  0.00  0.00    +0.210 HD
ENDBRANCH  17  18
BRANCH  16  20
ATOM     20  O   LIG    1        0.356  30.157  60.676  0.00  0.00    -0.385 OA
ATOM     21  H   LIG    1       -0.221  29.404  60.890  0.00  0.00    +0.210 HD
ENDBRANCH  16  20
BRANCH  22  23
ATOM     23  O   LIG    1       -2.574  30.587  60.586  0.00  0.00    -0.387 OA
ATOM     24  H   LIG    1       -3.538  30.542  60.459  0.00  0.00    +0.210 HD
ENDBRANCH  22  23
BRANCH  12  13
ATOM     13  C   LIG    1        0.913  29.603  63.610  0.00  0.00    +0.189 C 
BRANCH  13  14
ATOM     14  O   LIG    1        2.139  29.864  62.955  0.00  0.00    -0.391 OA
ATOM     15  H   LIG    1        2.487  29.011  62.645  0.00  0.00    +0.210 HD
ENDBRANCH  13  14
ENDBRANCH  12  13
ENDBRANCH   8  10
ENDBRANCH   5   8
BRANCH   4  25
ATOM     25  O   LIG    1       -5.905  33.603  63.397  0.00  0.00    -0.387 OA
ATOM     26  H   LIG    1       -5.215  34.122  63.845  0.00  0.00    +0.210 HD
ENDBRANCH   4  25
BRANCH   3  27
ATOM     27  O   LIG    1       -5.521  31.137  60.747  0.00  0.00    -0.384 OA
ATOM     28  H   LIG    1       -5.811  30.224  60.916  0.00  0.00    +0.210 HD
ENDBRANCH   3  27
ENDBRANCH   1   2
BRANCH   1  30
ATOM     30  C   LIG    1       -8.512  31.625  60.301  0.00  0.00    +0.183 C 
ATOM     31  C   LIG    1       -9.900  32.192  60.650  0.00  0.00    +0.178 C 
ATOM     35  O   LIG    1      -10.942  31.253  60.361  0.00  0.00    -0.341 OA
ATOM     36  C   LIG    1      -10.973  30.783  59.015  0.00  0.00    +0.282 C 
ATOM     37  C   LIG    1       -9.668  30.060  58.670  0.00  0.00    +0.201 C 
ATOM     56  C   LIG    1       -8.454  30.956  58.921  0.00  0.00    +0.179 C 
BRANCH  37  38
ATOM     38  O   LIG    1       -9.556  28.874  59.457  0.00  0.00    -0.384 OA
ATOM     39  H   LIG    1      -10.449  28.640  59.762  0.00  0.00    +0.210 HD
ENDBRANCH  37  38
BRANCH  56  57
ATOM     57  O   LIG    1       -8.405  31.947  57.900  0.00  0.00    -0.386 OA
ATOM     58  H   LIG    1       -8.059  31.524  57.096  0.00  0.00    +0.210 HD
ENDBRANCH  56  57
BRANCH  31  32
ATOM     32  C   LIG    1      -10.187  33.550  60.011  0.00  0.00    +0.190 C 
BRANCH  32  33
ATOM     33  O   LIG    1       -9.992  34.557  60.987  0.00  0.00    -0.392 OA
ATOM     34  H   LIG    1      -10.291  35.396  60.596  0.00  0.00    +0.210 HD
ENDBRANCH  32  33
ENDBRANCH  31  32
BRANCH  36  40
ATOM     40  O   LIG    1      -12.055  29.873  58.830  0.00  0.00    -0.340 OA
BRANCH  40  41
ATOM     41  C   LIG    1      -13.045  30.414  57.958  0.00  0.00    +0.183 C 
ATOM     42  C   LIG    1      -12.551  30.378  56.505  0.00  0.00    +0.178 C 
ATOM     46  O   LIG    1      -13.474  31.045  55.636  0.00  0.00    -0.341 OA
ATOM     47  C   LIG    1      -13.669  32.421  55.966  0.00  0.00    +0.279 C 
ATOM     48  C   LIG    1      -14.223  32.559  57.384  0.00  0.00    +0.201 C 
ATOM     53  C   LIG    1      -13.339  31.847  58.407  0.00  0.00    +0.179 C 
BRANCH  48  49
ATOM     49  O   LIG    1      -14.341  33.933  57.737  0.00  0.00    -0.384 OA
ATOM     50  H   LIG    1      -14.997  33.997  58.452  0.00  0.00    +0.210 HD
ENDBRANCH  48  49
BRANCH  47  51
ATOM     51  O   LIG    1      -12.490  33.197  55.761  0.00  0.00    -0.365 OA
ATOM     52  H   LIG    1      -11.758  32.732  56.201  0.00  0.00    +0.213 HD
ENDBRANCH  47  51
BRANCH  53  54
ATOM     54  O   LIG    1      -14.026  31.792  59.660  0.00  0.00    -0.386 OA
ATOM     55  H   LIG    1      -13.636  31.076  60.189  0.00  0.00    +0.210 HD
ENDBRANCH  53  54
BRANCH  42  43
ATOM     43  C   LIG    1      -12.401  28.951  55.986  0.00  0.00    +0.190 C 
BRANCH  43  44
ATOM     44  O   LIG    1      -12.704  28.941  54.603  0.00  0.00    -0.392 OA
ATOM     45  H   LIG    1      -13.506  28.402  54.490  0.00  0.00    +0.210 HD
ENDBRANCH  43  44
ENDBRANCH  42  43
ENDBRANCH  40  41
ENDBRANCH  36  40
ENDBRANCH   1  30
TORSDOF 22
ENDMDL
MODEL 8
REMARK VINA RESULT:      -6.7      7.371     15.644
REMARK  Name = 41774
REMARK                            x       y       z     vdW  Elec       q    Type
REMARK                         _______ _______ _______ _____ _____    ______ ____
ROOT
ATOM      1  O   LIG    1        2.540  30.893  66.568  0.00  0.00    -0.340 OA
ENDROOT
BRANCH   1   2
ATOM      2  C   LIG    1        3.934  31.038  66.832  0.00  0.00    +0.282 C 
ATOM      3  C   LIG    1        4.614  29.687  66.607  0.00  0.00    +0.200 C 
ATOM      4  C   LIG    1        6.104  29.757  66.953  0.00  0.00    +0.167 C 
ATOM      5  C   LIG    1        6.359  30.420  68.321  0.00  0.00    +0.114 C 
ATOM      6  C   LIG    1        5.512  31.694  68.533  0.00  0.00    +0.138 C 
ATOM      7  C   LIG    1        6.088  32.931  67.840  0.00  0.00    +0.039 C 
ATOM     29  O   LIG    1        4.141  31.493  68.168  0.00  0.00    -0.344 OA
BRANCH   5   8
ATOM      8  N   LIG    1        6.042  29.463  69.390  0.00  0.00    -0.300 NA
ATOM      9  H   LIG    1        5.742  28.577  68.986  0.00  0.00    +0.123 HD
BRANCH   8  10
ATOM     10  C   LIG    1        7.201  29.264  70.265  0.00  0.00    +0.109 C 
ATOM     11  C   LIG    1        6.798  28.644  71.577  0.00  0.00    -0.002 C 
ATOM     12  C   LIG    1        7.520  27.706  72.217  0.00  0.00    -0.016 C 
ATOM     16  C   LIG    1        8.843  27.200  71.684  0.00  0.00    +0.173 C 
ATOM     17  C   LIG    1        9.405  28.024  70.512  0.00  0.00    +0.177 C 
ATOM     22  C   LIG    1        8.309  28.473  69.536  0.00  0.00    +0.166 C 
BRANCH  17  18
ATOM     18  O   LIG    1       10.069  29.170  71.044  0.00  0.00    -0.386 OA
ATOM     19  H   LIG    1        9.826  29.934  70.492  0.00  0.00    +0.210 HD
ENDBRANCH  17  18
BRANCH  16  20
ATOM     20  O   LIG    1        8.654  25.847  71.271  0.00  0.00    -0.385 OA
ATOM     21  H   LIG    1        9.220  25.288  71.829  0.00  0.00    +0.210 HD
ENDBRANCH  16  20
BRANCH  22  23
ATOM     23  O   LIG    1        7.778  27.333  68.862  0.00  0.00    -0.387 OA
ATOM     24  H   LIG    1        6.922  27.121  69.274  0.00  0.00    +0.210 HD
ENDBRANCH  22  23
BRANCH  12  13
ATOM     13  C   LIG    1        7.059  27.120  73.521  0.00  0.00    +0.189 C 
BRANCH  13  14
ATOM     14  O   LIG    1        6.555  25.816  73.303  0.00  0.00    -0.391 OA
ATOM     15  H   LIG    1        5.658  25.911  72.940  0.00  0.00    +0.210 HD
ENDBRANCH  13  14
ENDBRANCH  12  13
ENDBRANCH   8  10
ENDBRANCH   5   8
BRANCH   4  25
ATOM     25  O   LIG    1        6.768  30.496  65.927  0.00  0.00    -0.387 OA
ATOM     26  H   LIG    1        7.702  30.581  66.186  0.00  0.00    +0.210 HD
ENDBRANCH   4  25
BRANCH   3  27
ATOM     27  O   LIG    1        3.972  28.708  67.424  0.00  0.00    -0.384 OA
ATOM     28  H   LIG    1        3.481  29.183  68.116  0.00  0.00    +0.210 HD
ENDBRANCH   3  27
ENDBRANCH   1   2
BRANCH   1  30
ATOM     30  C   LIG    1        1.938  32.148  66.234  0.00  0.00    +0.183 C 
ATOM     31  C   LIG    1        0.410  31.969  66.241  0.00  0.00    +0.178 C 
ATOM     35  O   LIG    1       -0.038  31.219  65.105  0.00  0.00    -0.341 OA
ATOM     36  C   LIG    1        0.348  31.753  63.841  0.00  0.00    +0.282 C 
ATOM     37  C   LIG    1        1.875  31.797  63.721  0.00  0.00    +0.201 C 
ATOM     56  C   LIG    1        2.499  32.584  64.875  0.00  0.00    +0.179 C 
BRANCH  37  38
ATOM     38  O   LIG    1        2.392  30.466  63.717  0.00  0.00    -0.384 OA
ATOM     39  H   LIG    1        1.642  29.861  63.591  0.00  0.00    +0.210 HD
ENDBRANCH  37  38
BRANCH  56  57
ATOM     57  O   LIG    1        2.245  33.970  64.665  0.00  0.00    -0.386 OA
ATOM     58  H   LIG    1        3.084  34.385  64.402  0.00  0.00    +0.210 HD
ENDBRANCH  56  57
BRANCH  31  32
ATOM     32  C   LIG    1       -0.361  33.281  66.376  0.00  0.00    +0.190 C 
BRANCH  32  33
ATOM     33  O   LIG    1        0.452  34.212  67.067  0.00  0.00    -0.392 OA
ATOM     34  H   LIG    1        1.189  34.442  66.476  0.00  0.00    +0.210 HD
ENDBRANCH  32  33
ENDBRANCH  31  32
BRANCH  36  40
ATOM     40  O   LIG    1       -0.164  30.946  62.782  0.00  0.00    -0.340 OA
BRANCH  40  41
ATOM     41  C   LIG    1       -1.220  31.608  62.090  0.00  0.00    +0.183 C 
ATOM     42  C   LIG    1       -0.789  33.026  61.689  0.00  0.00    +0.178 C 
ATOM     46  O   LIG    1       -1.885  33.750  61.118  0.00  0.00    -0.341 OA
ATOM     47  C   LIG    1       -2.991  33.898  62.010  0.00  0.00    +0.279 C 
ATOM     48  C   LIG    1       -3.536  32.529  62.419  0.00  0.00    +0.201 C 
ATOM     53  C   LIG    1       -2.442  31.641  63.010  0.00  0.00    +0.179 C 
BRANCH  48  49
ATOM     49  O   LIG    1       -4.586  32.678  63.368  0.00  0.00    -0.384 OA
ATOM     50  H   LIG    1       -5.331  32.130  63.069  0.00  0.00    +0.210 HD
ENDBRANCH  48  49
BRANCH  47  51
ATOM     51  O   LIG    1       -2.675  34.719  63.132  0.00  0.00    -0.365 OA
ATOM     52  H   LIG    1       -2.202  35.499  62.794  0.00  0.00    +0.213 HD
ENDBRANCH  47  51
BRANCH  53  54
ATOM     54  O   LIG    1       -2.942  30.307  63.139  0.00  0.00    -0.386 OA
ATOM     55  H   LIG    1       -3.477  30.106  62.352  0.00  0.00    +0.210 HD
ENDBRANCH  53  54
BRANCH  42  43
ATOM     43  C   LIG    1        0.328  33.013  60.649  0.00  0.00    +0.190 C 
BRANCH  43  44
ATOM     44  O   LIG    1        0.584  31.670  60.280  0.00  0.00    -0.392 OA
ATOM     45  H   LIG    1       -0.121  31.403  59.665  0.00  0.00    +0.210 HD
ENDBRANCH  43  44
ENDBRANCH  42  43
ENDBRANCH  40  41
ENDBRANCH  36  40
ENDBRANCH   1  30
TORSDOF 22
ENDMDL
MODEL 9
REMARK VINA RESULT:      -6.6      1.910      2.680
REMARK  Name = 41774
REMARK                            x       y       z     vdW  Elec       q    Type
REMARK                         _______ _______ _______ _____ _____    ______ ____
ROOT
ATOM      1  O   LIG    1       -4.845  31.614  62.343  0.00  0.00    -0.340 OA
ENDROOT
BRANCH   1   2
ATOM      2  C   LIG    1       -6.250  31.509  62.565  0.00  0.00    +0.282 C 
ATOM      3  C   LIG    1       -6.820  30.478  61.589  0.00  0.00    +0.200 C 
ATOM      4  C   LIG    1       -8.342  30.379  61.723  0.00  0.00    +0.167 C 
ATOM      5  C   LIG    1       -9.024  31.761  61.717  0.00  0.00    +0.114 C 
ATOM      6  C   LIG    1       -8.292  32.791  62.604  0.00  0.00    +0.138 C 
ATOM      7  C   LIG    1       -8.615  32.652  64.093  0.00  0.00    +0.039 C 
ATOM     29  O   LIG    1       -6.877  32.778  62.382  0.00  0.00    -0.344 OA
BRANCH   5   8
ATOM      8  N   LIG    1       -9.067  32.274  60.340  0.00  0.00    -0.300 NA
ATOM      9  H   LIG    1       -8.159  32.152  59.895  0.00  0.00    +0.123 HD
BRANCH   8  10
ATOM     10  C   LIG    1      -10.114  31.598  59.569  0.00  0.00    +0.109 C 
ATOM     11  C   LIG    1      -11.273  32.518  59.293  0.00  0.00    -0.002 C 
ATOM     12  C   LIG    1      -11.948  32.547  58.128  0.00  0.00    -0.016 C 
ATOM     16  C   LIG    1      -11.617  31.621  56.978  0.00  0.00    +0.173 C 
ATOM     17  C   LIG    1      -10.641  30.488  57.345  0.00  0.00    +0.177 C 
ATOM     22  C   LIG    1       -9.528  30.960  58.290  0.00  0.00    +0.166 C 
BRANCH  17  18
ATOM     18  O   LIG    1      -11.381  29.437  57.965  0.00  0.00    -0.386 OA
ATOM     19  H   LIG    1      -11.447  28.707  57.326  0.00  0.00    +0.210 HD
ENDBRANCH  17  18
BRANCH  16  20
ATOM     20  O   LIG    1      -11.060  32.413  55.931  0.00  0.00    -0.385 OA
ATOM     21  H   LIG    1      -10.092  32.354  56.001  0.00  0.00    +0.210 HD
ENDBRANCH  16  20
BRANCH  22  23
ATOM     23  O   LIG    1       -8.673  31.870  57.599  0.00  0.00    -0.387 OA
ATOM     24  H   LIG    1       -8.352  32.521  58.248  0.00  0.00    +0.210 HD
ENDBRANCH  22  23
BRANCH  12  13
ATOM     13  C   LIG    1      -13.092  33.496  57.911  0.00  0.00    +0.189 C 
BRANCH  13  14
ATOM     14  O   LIG    1      -14.304  32.770  57.844  0.00  0.00    -0.391 OA
ATOM     15  H   LIG    1      -14.745  32.865  58.706  0.00  0.00    +0.210 HD
ENDBRANCH  13  14
ENDBRANCH  12  13
ENDBRANCH   8  10
ENDBRANCH   5   8
BRANCH   4  25
ATOM     25  O   LIG    1       -8.641  29.698  62.942  0.00  0.00    -0.387 OA
ATOM     26  H   LIG    1       -9.587  29.468  62.924  0.00  0.00    +0.210 HD
ENDBRANCH   4  25
BRANCH   3  27
ATOM     27  O   LIG    1       -6.474  30.864  60.260  0.00  0.00    -0.384 OA
ATOM     28  H   LIG    1       -5.760  30.275  59.961  0.00  0.00    +0.210 HD
ENDBRANCH   3  27
ENDBRANCH   1   2
BRANCH   1  30
ATOM     30  C   LIG    1       -4.361  32.921  62.667  0.00  0.00    +0.183 C 
ATOM     31  C   LIG    1       -3.231  33.276  61.685  0.00  0.00    +0.178 C 
ATOM     35  O   LIG    1       -2.035  32.539  61.966  0.00  0.00    -0.341 OA
ATOM     36  C   LIG    1       -1.539  32.683  63.296  0.00  0.00    +0.282 C 
ATOM     37  C   LIG    1       -2.572  32.184  64.310  0.00  0.00    +0.201 C 
ATOM     56  C   LIG    1       -3.913  32.898  64.134  0.00  0.00    +0.179 C 
BRANCH  37  38
ATOM     38  O   LIG    1       -2.757  30.777  64.151  0.00  0.00    -0.384 OA
ATOM     39  H   LIG    1       -3.322  30.643  63.371  0.00  0.00    +0.210 HD
ENDBRANCH  37  38
BRANCH  56  57
ATOM     57  O   LIG    1       -3.783  34.229  64.624  0.00  0.00    -0.386 OA
ATOM     58  H   LIG    1       -2.999  34.255  65.199  0.00  0.00    +0.210 HD
ENDBRANCH  56  57
BRANCH  31  32
ATOM     32  C   LIG    1       -2.948  34.775  61.591  0.00  0.00    +0.190 C 
BRANCH  32  33
ATOM     33  O   LIG    1       -2.456  35.059  60.294  0.00  0.00    -0.392 OA
ATOM     34  H   LIG    1       -2.065  34.238  59.950  0.00  0.00    +0.210 HD
ENDBRANCH  32  33
ENDBRANCH  31  32
BRANCH  36  40
ATOM     40  O   LIG    1       -0.341  31.929  63.463  0.00  0.00    -0.340 OA
BRANCH  40  41
ATOM     41  C   LIG    1        0.813  32.763  63.387  0.00  0.00    +0.183 C 
ATOM     42  C   LIG    1        1.758  32.267  62.285  0.00  0.00    +0.178 C 
ATOM     46  O   LIG    1        2.982  33.009  62.289  0.00  0.00    -0.341 OA
ATOM     47  C   LIG    1        3.702  32.905  63.519  0.00  0.00    +0.279 C 
ATOM     48  C   LIG    1        2.861  33.439  64.679  0.00  0.00    +0.201 C 
ATOM     53  C   LIG    1        1.501  32.747  64.754  0.00  0.00    +0.179 C 
BRANCH  48  49
ATOM     49  O   LIG    1        3.549  33.261  65.912  0.00  0.00    -0.384 OA
ATOM     50  H   LIG    1        2.881  33.114  66.602  0.00  0.00    +0.210 HD
ENDBRANCH  48  49
BRANCH  47  51
ATOM     51  O   LIG    1        4.182  31.583  63.754  0.00  0.00    -0.365 OA
ATOM     52  H   LIG    1        5.141  31.647  63.902  0.00  0.00    +0.213 HD
ENDBRANCH  47  51
BRANCH  53  54
ATOM     54  O   LIG    1        0.669  33.449  65.682  0.00  0.00    -0.386 OA
ATOM     55  H   LIG    1        1.240  33.836  66.368  0.00  0.00    +0.210 HD
ENDBRANCH  53  54
BRANCH  42  43
ATOM     43  C   LIG    1        1.147  32.421  60.894  0.00  0.00    +0.190 C 
BRANCH  43  44
ATOM     44  O   LIG    1        0.315  31.304  60.642  0.00  0.00    -0.392 OA
ATOM     45  H   LIG    1        0.437  31.061  59.708  0.00  0.00    +0.210 HD
ENDBRANCH  43  44
ENDBRANCH  42  43
ENDBRANCH  40  41
ENDBRANCH  36  40
ENDBRANCH   1  30
TORSDOF 22
ENDMDL
