REMARK  Name = 159278
REMARK                            x       y       z     vdW  Elec       q    Type
REMARK                         _______ _______ _______ _____ _____    ______ ____
ROOT
ATOM      1  O   LIG    1       12.670  78.682 133.162  0.00  0.00    -0.341 OA
ATOM      2  C   LIG    1       12.627  78.421 134.563  0.00  0.00    +0.282 C 
ATOM      3  C   LIG    1       13.404  77.148 134.895  0.00  0.00    +0.201 C 
ATOM      4  C   LIG    1       14.830  77.207 134.348  0.00  0.00    +0.179 C 
ATOM      5  C   LIG    1       14.843  77.646 132.883  0.00  0.00    +0.177 C 
ATOM     23  C   LIG    1       13.998  78.906 132.686  0.00  0.00    +0.178 C 
ENDROOT
BRANCH   5   6
ATOM      6  O   LIG    1       16.185  77.911 132.482  0.00  0.00    -0.386 OA
ATOM      7  H   LIG    1       16.261  77.710 131.534  0.00  0.00    +0.210 HD
ENDBRANCH   5   6
BRANCH   4   8
ATOM      8  O   LIG    1       15.425  75.911 134.426  0.00  0.00    -0.386 OA
ATOM      9  H   LIG    1       16.080  75.847 133.710  0.00  0.00    +0.210 HD
ENDBRANCH   4   8
BRANCH   3  10
ATOM     10  O   LIG    1       13.448  77.008 136.315  0.00  0.00    -0.384 OA
ATOM     11  H   LIG    1       12.666  77.451 136.687  0.00  0.00    +0.210 HD
ENDBRANCH   3  10
BRANCH   2  12
ATOM     12  O   LIG    1       11.275  78.231 134.977  0.00  0.00    -0.348 OA
BRANCH  12  13
ATOM     13  C   LIG    1       10.487  77.682 133.931  0.00  0.00    +0.168 C 
BRANCH  13  14
ATOM     14  C   LIG    1        9.155  78.418 133.847  0.00  0.00    +0.063 C 
BRANCH  14  15
ATOM     15  C   LIG    1        8.925  79.036 132.489  0.00  0.00    -0.045 A 
ATOM     16  C   LIG    1        9.685  80.129 132.103  0.00  0.00    +0.007 A 
ATOM     17  C   LIG    1        9.474  80.700 130.848  0.00  0.00    +0.045 A 
ATOM     18  C   LIG    1        8.506  80.170 129.996  0.00  0.00    +0.117 A 
ATOM     19  C   LIG    1        7.748  79.070 130.399  0.00  0.00    +0.045 A 
ATOM     22  C   LIG    1        7.960  78.499 131.654  0.00  0.00    +0.007 A 
BRANCH  18  20
ATOM     20  O   LIG    1        8.298  80.727 128.771  0.00  0.00    -0.507 OA
ATOM     21  H   LIG    1        9.053  81.299 128.553  0.00  0.00    +0.292 HD
ENDBRANCH  18  20
ENDBRANCH  14  15
ENDBRANCH  13  14
ENDBRANCH  12  13
ENDBRANCH   2  12
BRANCH  23  24
ATOM     24  C   LIG    1       13.899  79.295 131.215  0.00  0.00    +0.190 C 
BRANCH  24  25
ATOM     25  O   LIG    1       15.208  79.452 130.700  0.00  0.00    -0.392 OA
ATOM     26  H   LIG    1       15.551  78.567 130.495  0.00  0.00    +0.210 HD
ENDBRANCH  24  25
ENDBRANCH  23  24
TORSDOF 10
