REMARK  Name = 159278
REMARK                            x       y       z     vdW  Elec       q    Type
REMARK                         _______ _______ _______ _____ _____    ______ ____
ROOT
ATOM      1  O   LIG    1        9.965  78.076 132.076  0.00  0.00    -0.341 OA
ATOM      2  C   LIG    1       10.529  79.385 132.099  0.00  0.00    +0.282 C 
ATOM      3  C   LIG    1       10.246  80.113 130.785  0.00  0.00    +0.201 C 
ATOM      4  C   LIG    1        8.751  80.119 130.463  0.00  0.00    +0.179 C 
ATOM      5  C   LIG    1        8.149  78.720 130.605  0.00  0.00    +0.177 C 
ATOM     23  C   LIG    1        8.542  78.094 131.945  0.00  0.00    +0.178 C 
ENDROOT
BRANCH   5   6
ATOM      6  O   LIG    1        6.729  78.808 130.525  0.00  0.00    -0.386 OA
ATOM      7  H   LIG    1        6.422  78.142 129.887  0.00  0.00    +0.210 HD
ENDBRANCH   5   6
BRANCH   4   8
ATOM      8  O   LIG    1        8.556  80.548 129.115  0.00  0.00    -0.386 OA
ATOM      9  H   LIG    1        9.290  81.145 128.890  0.00  0.00    +0.210 HD
ENDBRANCH   4   8
BRANCH   3  10
ATOM     10  O   LIG    1       10.707  81.458 130.910  0.00  0.00    -0.384 OA
ATOM     11  H   LIG    1       10.127  82.028 130.376  0.00  0.00    +0.210 HD
ENDBRANCH   3  10
BRANCH   2  12
ATOM     12  O   LIG    1       11.944  79.298 132.255  0.00  0.00    -0.348 OA
BRANCH  12  13
ATOM     13  C   LIG    1       12.598  79.196 130.999  0.00  0.00    +0.168 C 
BRANCH  13  14
ATOM     14  C   LIG    1       14.106  79.118 131.207  0.00  0.00    +0.063 C 
BRANCH  14  15
ATOM     15  C   LIG    1       14.724  80.475 131.444  0.00  0.00    -0.045 A 
ATOM     16  C   LIG    1       15.978  80.750 130.922  0.00  0.00    +0.007 A 
ATOM     17  C   LIG    1       16.550  82.003 131.140  0.00  0.00    +0.045 A 
ATOM     18  C   LIG    1       15.860  82.965 131.877  0.00  0.00    +0.117 A 
ATOM     19  C   LIG    1       14.598  82.673 132.397  0.00  0.00    +0.045 A 
ATOM     22  C   LIG    1       14.027  81.420 132.178  0.00  0.00    +0.007 A 
BRANCH  18  20
ATOM     20  O   LIG    1       16.417  84.188 132.090  0.00  0.00    -0.507 OA
ATOM     21  H   LIG    1       17.046  84.123 132.829  0.00  0.00    +0.292 HD
ENDBRANCH  18  20
ENDBRANCH  14  15
ENDBRANCH  13  14
ENDBRANCH  12  13
ENDBRANCH   2  12
BRANCH  23  24
ATOM     24  C   LIG    1        8.053  76.654 132.061  0.00  0.00    +0.190 C 
BRANCH  24  25
ATOM     25  O   LIG    1        8.499  76.123 133.294  0.00  0.00    -0.392 OA
ATOM     26  H   LIG    1        9.359  76.529 133.495  0.00  0.00    +0.210 HD
ENDBRANCH  24  25
ENDBRANCH  23  24
TORSDOF 10
