REMARK  Name = 159278
REMARK                            x       y       z     vdW  Elec       q    Type
REMARK                         _______ _______ _______ _____ _____    ______ ____
ROOT
ATOM      1  O   LIG    1        7.303  81.139 129.015  0.00  0.00    -0.341 OA
ATOM      2  C   LIG    1        6.713  80.906 130.292  0.00  0.00    +0.282 C 
ATOM      3  C   LIG    1        7.649  81.369 131.407  0.00  0.00    +0.201 C 
ATOM      4  C   LIG    1        8.073  82.825 131.209  0.00  0.00    +0.179 C 
ATOM      5  C   LIG    1        8.550  83.072 129.777  0.00  0.00    +0.177 C 
ATOM     23  C   LIG    1        7.541  82.526 128.766  0.00  0.00    +0.178 C 
ENDROOT
BRANCH   5   6
ATOM      6  O   LIG    1        8.714  84.473 129.570  0.00  0.00    -0.386 OA
ATOM      7  H   LIG    1        9.045  84.607 128.666  0.00  0.00    +0.210 HD
ENDBRANCH   5   6
BRANCH   4   8
ATOM      8  O   LIG    1        9.152  83.131 132.093  0.00  0.00    -0.386 OA
ATOM      9  H   LIG    1        9.653  83.865 131.698  0.00  0.00    +0.210 HD
ENDBRANCH   4   8
BRANCH   3  10
ATOM     10  O   LIG    1        6.961  81.243 132.651  0.00  0.00    -0.384 OA
ATOM     11  H   LIG    1        6.264  80.573 132.544  0.00  0.00    +0.210 HD
ENDBRANCH   3  10
BRANCH   2  12
ATOM     12  O   LIG    1        6.480  79.509 130.467  0.00  0.00    -0.348 OA
BRANCH  12  13
ATOM     13  C   LIG    1        7.460  78.924 131.311  0.00  0.00    +0.168 C 
BRANCH  13  14
ATOM     14  C   LIG    1        8.441  78.111 130.475  0.00  0.00    +0.063 C 
BRANCH  14  15
ATOM     15  C   LIG    1        9.848  78.652 130.554  0.00  0.00    -0.045 A 
ATOM     16  C   LIG    1       10.616  78.719 129.402  0.00  0.00    +0.007 A 
ATOM     17  C   LIG    1       11.916  79.220 129.475  0.00  0.00    +0.045 A 
ATOM     18  C   LIG    1       12.431  79.646 130.698  0.00  0.00    +0.117 A 
ATOM     19  C   LIG    1       11.647  79.571 131.850  0.00  0.00    +0.045 A 
ATOM     22  C   LIG    1       10.347  79.071 131.776  0.00  0.00    +0.007 A 
BRANCH  18  20
ATOM     20  O   LIG    1       13.700  80.134 130.770  0.00  0.00    -0.507 OA
ATOM     21  H   LIG    1       14.133  80.015 129.907  0.00  0.00    +0.292 HD
ENDBRANCH  18  20
ENDBRANCH  14  15
ENDBRANCH  13  14
ENDBRANCH  12  13
ENDBRANCH   2  12
BRANCH  23  24
ATOM     24  C   LIG    1        8.049  82.655 127.334  0.00  0.00    +0.190 C 
BRANCH  24  25
ATOM     25  O   LIG    1        7.871  83.993 126.910  0.00  0.00    -0.392 OA
ATOM     26  H   LIG    1        8.529  84.539 127.373  0.00  0.00    +0.210 HD
ENDBRANCH  24  25
ENDBRANCH  23  24
TORSDOF 10
