REMARK  Name = 159278
REMARK                            x       y       z     vdW  Elec       q    Type
REMARK                         _______ _______ _______ _____ _____    ______ ____
ROOT
ATOM      1  O   LIG    1        5.896  93.626 101.556  0.00  0.00    -0.341 OA
ATOM      2  C   LIG    1        6.401  94.424 102.625  0.00  0.00    +0.282 C 
ATOM      3  C   LIG    1        5.290  95.292 103.216  0.00  0.00    +0.201 C 
ATOM      4  C   LIG    1        4.082  94.449 103.625  0.00  0.00    +0.179 C 
ATOM      5  C   LIG    1        3.671  93.491 102.506  0.00  0.00    +0.177 C 
ATOM     23  C   LIG    1        4.881  92.716 101.982  0.00  0.00    +0.178 C 
ENDROOT
BRANCH   5   6
ATOM      6  O   LIG    1        2.702  92.572 103.004  0.00  0.00    -0.386 OA
ATOM      7  H   LIG    1        1.991  92.498 102.346  0.00  0.00    +0.210 HD
ENDBRANCH   5   6
BRANCH   4   8
ATOM      8  O   LIG    1        2.975  95.306 103.902  0.00  0.00    -0.386 OA
ATOM      9  H   LIG    1        3.334  96.163 104.190  0.00  0.00    +0.210 HD
ENDBRANCH   4   8
BRANCH   3  10
ATOM     10  O   LIG    1        5.809  95.963 104.364  0.00  0.00    -0.384 OA
ATOM     11  H   LIG    1        6.756  96.125 104.216  0.00  0.00    +0.210 HD
ENDBRANCH   3  10
BRANCH   2  12
ATOM     12  O   LIG    1        7.424  95.290 102.139  0.00  0.00    -0.348 OA
BRANCH  12  13
ATOM     13  C   LIG    1        6.875  96.470 101.571  0.00  0.00    +0.168 C 
BRANCH  13  14
ATOM     14  C   LIG    1        7.352  96.619 100.131  0.00  0.00    +0.063 C 
BRANCH  14  15
ATOM     15  C   LIG    1        7.771  95.301  99.526  0.00  0.00    -0.045 A 
ATOM     16  C   LIG    1        6.821  94.510  98.899  0.00  0.00    +0.007 A 
ATOM     17  C   LIG    1        7.207  93.292  98.339  0.00  0.00    +0.045 A 
ATOM     18  C   LIG    1        8.538  92.882  98.414  0.00  0.00    +0.117 A 
ATOM     19  C   LIG    1        9.483  93.689  99.049  0.00  0.00    +0.045 A 
ATOM     22  C   LIG    1        9.096  94.907  99.608  0.00  0.00    +0.007 A 
BRANCH  18  20
ATOM     20  O   LIG    1        8.916  91.693  97.868  0.00  0.00    -0.507 OA
ATOM     21  H   LIG    1        8.157  91.308  97.397  0.00  0.00    +0.292 HD
ENDBRANCH  18  20
ENDBRANCH  14  15
ENDBRANCH  13  14
ENDBRANCH  12  13
ENDBRANCH   2  12
BRANCH  23  24
ATOM     24  C   LIG    1        4.518  91.841 100.787  0.00  0.00    +0.190 C 
BRANCH  24  25
ATOM     25  O   LIG    1        3.196  91.367 100.960  0.00  0.00    -0.392 OA
ATOM     26  H   LIG    1        3.177  90.837 101.774  0.00  0.00    +0.210 HD
ENDBRANCH  24  25
ENDBRANCH  23  24
TORSDOF 10
