REMARK  Name = 159278
REMARK                            x       y       z     vdW  Elec       q    Type
REMARK                         _______ _______ _______ _____ _____    ______ ____
ROOT
ATOM      1  O   LIG    1        2.044  93.034 107.241  0.00  0.00    -0.341 OA
ATOM      2  C   LIG    1        2.412  94.287 106.667  0.00  0.00    +0.282 C 
ATOM      3  C   LIG    1        1.722  95.435 107.403  0.00  0.00    +0.201 C 
ATOM      4  C   LIG    1        1.988  95.373 108.907  0.00  0.00    +0.179 C 
ATOM      5  C   LIG    1        1.734  93.968 109.456  0.00  0.00    +0.177 C 
ATOM     23  C   LIG    1        2.449  92.916 108.606  0.00  0.00    +0.178 C 
ENDROOT
BRANCH   5   6
ATOM      6  O   LIG    1        2.210  93.894 110.797  0.00  0.00    -0.386 OA
ATOM      7  H   LIG    1        2.146  92.968 111.088  0.00  0.00    +0.210 HD
ENDBRANCH   5   6
BRANCH   4   8
ATOM      8  O   LIG    1        1.112  96.276 109.583  0.00  0.00    -0.386 OA
ATOM      9  H   LIG    1        0.462  95.741 110.071  0.00  0.00    +0.210 HD
ENDBRANCH   4   8
BRANCH   3  10
ATOM     10  O   LIG    1        2.226  96.666 106.884  0.00  0.00    -0.384 OA
ATOM     11  H   LIG    1        1.490  97.300 106.842  0.00  0.00    +0.210 HD
ENDBRANCH   3  10
BRANCH   2  12
ATOM     12  O   LIG    1        2.002  94.330 105.302  0.00  0.00    -0.348 OA
BRANCH  12  13
ATOM     13  C   LIG    1        3.075  94.705 104.452  0.00  0.00    +0.168 C 
BRANCH  13  14
ATOM     14  C   LIG    1        4.133  93.607 104.444  0.00  0.00    +0.063 C 
BRANCH  14  15
ATOM     15  C   LIG    1        4.433  93.109 103.050  0.00  0.00    -0.045 A 
ATOM     16  C   LIG    1        5.633  93.455 102.450  0.00  0.00    +0.007 A 
ATOM     17  C   LIG    1        5.911  92.995 101.162  0.00  0.00    +0.045 A 
ATOM     18  C   LIG    1        4.985  92.197 100.493  0.00  0.00    +0.117 A 
ATOM     19  C   LIG    1        3.780  91.858 101.110  0.00  0.00    +0.045 A 
ATOM     22  C   LIG    1        3.503  92.317 102.398  0.00  0.00    +0.007 A 
BRANCH  18  20
ATOM     20  O   LIG    1        5.254  91.748  99.236  0.00  0.00    -0.507 OA
ATOM     21  H   LIG    1        5.481  90.803  99.281  0.00  0.00    +0.292 HD
ENDBRANCH  18  20
ENDBRANCH  14  15
ENDBRANCH  13  14
ENDBRANCH  12  13
ENDBRANCH   2  12
BRANCH  23  24
ATOM     24  C   LIG    1        2.116  91.500 109.063  0.00  0.00    +0.190 C 
BRANCH  24  25
ATOM     25  O   LIG    1        2.912  91.190 110.191  0.00  0.00    -0.392 OA
ATOM     26  H   LIG    1        3.278  92.024 110.531  0.00  0.00    +0.210 HD
ENDBRANCH  24  25
ENDBRANCH  23  24
TORSDOF 10
