REMARK  Name = 159278
REMARK                            x       y       z     vdW  Elec       q    Type
REMARK                         _______ _______ _______ _____ _____    ______ ____
ROOT
ATOM      1  O   LIG    1        2.979  93.012 105.714  0.00  0.00    -0.341 OA
ATOM      2  C   LIG    1        3.964  93.235 104.707  0.00  0.00    +0.282 C 
ATOM      3  C   LIG    1        3.840  94.649 104.140  0.00  0.00    +0.201 C 
ATOM      4  C   LIG    1        3.881  95.700 105.250  0.00  0.00    +0.179 C 
ATOM      5  C   LIG    1        2.924  95.339 106.388  0.00  0.00    +0.177 C 
ATOM     23  C   LIG    1        3.129  93.890 106.831  0.00  0.00    +0.178 C 
ENDROOT
BRANCH   5   6
ATOM      6  O   LIG    1        3.159  96.208 107.493  0.00  0.00    -0.386 OA
ATOM      7  H   LIG    1        3.351  97.095 107.143  0.00  0.00    +0.210 HD
ENDBRANCH   5   6
BRANCH   4   8
ATOM      8  O   LIG    1        3.482  96.965 104.722  0.00  0.00    -0.386 OA
ATOM      9  H   LIG    1        2.967  97.419 105.411  0.00  0.00    +0.210 HD
ENDBRANCH   4   8
BRANCH   3  10
ATOM     10  O   LIG    1        4.927  94.868 103.241  0.00  0.00    -0.384 OA
ATOM     11  H   LIG    1        5.359  94.013 103.075  0.00  0.00    +0.210 HD
ENDBRANCH   3  10
BRANCH   2  12
ATOM     12  O   LIG    1        3.774  92.314 103.634  0.00  0.00    -0.348 OA
BRANCH  12  13
ATOM     13  C   LIG    1        3.535  92.990 102.409  0.00  0.00    +0.168 C 
BRANCH  13  14
ATOM     14  C   LIG    1        3.910  92.086 101.240  0.00  0.00    +0.063 C 
BRANCH  14  15
ATOM     15  C   LIG    1        5.298  92.368 100.718  0.00  0.00    -0.045 A 
ATOM     16  C   LIG    1        6.357  92.433 101.609  0.00  0.00    +0.007 A 
ATOM     17  C   LIG    1        7.640  92.694 101.127  0.00  0.00    +0.045 A 
ATOM     18  C   LIG    1        7.846  92.885  99.762  0.00  0.00    +0.117 A 
ATOM     19  C   LIG    1        6.770  92.816  98.877  0.00  0.00    +0.045 A 
ATOM     22  C   LIG    1        5.487  92.556  99.359  0.00  0.00    +0.007 A 
BRANCH  18  20
ATOM     20  O   LIG    1        9.098  93.140  99.291  0.00  0.00    -0.507 OA
ATOM     21  H   LIG    1        9.733  93.055 100.022  0.00  0.00    +0.292 HD
ENDBRANCH  18  20
ENDBRANCH  14  15
ENDBRANCH  13  14
ENDBRANCH  12  13
ENDBRANCH   2  12
BRANCH  23  24
ATOM     24  C   LIG    1        2.108  93.471 107.883  0.00  0.00    +0.190 C 
BRANCH  24  25
ATOM     25  O   LIG    1        1.944  92.066 107.820  0.00  0.00    -0.392 OA
ATOM     26  H   LIG    1        2.020  91.803 106.887  0.00  0.00    +0.210 HD
ENDBRANCH  24  25
ENDBRANCH  23  24
TORSDOF 10
