REMARK  Name = 159278
REMARK                            x       y       z     vdW  Elec       q    Type
REMARK                         _______ _______ _______ _____ _____    ______ ____
ROOT
ATOM      1  O   LIG    1      -10.915 118.918  95.395  0.00  0.00    -0.341 OA
ATOM      2  C   LIG    1      -10.150 118.237  96.387  0.00  0.00    +0.282 C 
ATOM      3  C   LIG    1      -10.683 118.552  97.784  0.00  0.00    +0.201 C 
ATOM      4  C   LIG    1      -12.180 118.259  97.888  0.00  0.00    +0.179 C 
ATOM      5  C   LIG    1      -12.946 118.873  96.716  0.00  0.00    +0.177 C 
ATOM     23  C   LIG    1      -12.285 118.512  95.385  0.00  0.00    +0.178 C 
ENDROOT
BRANCH   5   6
ATOM      6  O   LIG    1      -14.286 118.388  96.723  0.00  0.00    -0.386 OA
ATOM      7  H   LIG    1      -14.548 118.240  97.648  0.00  0.00    +0.210 HD
ENDBRANCH   5   6
BRANCH   4   8
ATOM      8  O   LIG    1      -12.693 118.823  99.095  0.00  0.00    -0.386 OA
ATOM      9  H   LIG    1      -11.971 118.821  99.747  0.00  0.00    +0.210 HD
ENDBRANCH   4   8
BRANCH   3  10
ATOM     10  O   LIG    1       -9.977 117.744  98.726  0.00  0.00    -0.384 OA
ATOM     11  H   LIG    1       -9.063 117.639  98.409  0.00  0.00    +0.210 HD
ENDBRANCH   3  10
BRANCH   2  12
ATOM     12  O   LIG    1       -8.791 118.669  96.328  0.00  0.00    -0.348 OA
BRANCH  12  13
ATOM     13  C   LIG    1       -8.655 119.837  95.533  0.00  0.00    +0.168 C 
BRANCH  13  14
ATOM     14  C   LIG    1       -7.445 120.639  95.999  0.00  0.00    +0.063 C 
BRANCH  14  15
ATOM     15  C   LIG    1       -6.533 119.835  96.892  0.00  0.00    -0.045 A 
ATOM     16  C   LIG    1       -5.394 119.255  96.354  0.00  0.00    +0.007 A 
ATOM     17  C   LIG    1       -4.550 118.512  97.179  0.00  0.00    +0.045 A 
ATOM     18  C   LIG    1       -4.856 118.357  98.531  0.00  0.00    +0.117 A 
ATOM     19  C   LIG    1       -6.006 118.946  99.058  0.00  0.00    +0.045 A 
ATOM     22  C   LIG    1       -6.849 119.690  98.233  0.00  0.00    +0.007 A 
BRANCH  18  20
ATOM     20  O   LIG    1       -4.033 117.631  99.337  0.00  0.00    -0.507 OA
ATOM     21  H   LIG    1       -3.140 117.627  98.953  0.00  0.00    +0.292 HD
ENDBRANCH  18  20
ENDBRANCH  14  15
ENDBRANCH  13  14
ENDBRANCH  12  13
ENDBRANCH   2  12
BRANCH  23  24
ATOM     24  C   LIG    1      -12.961 119.209  94.210  0.00  0.00    +0.190 C 
BRANCH  24  25
ATOM     25  O   LIG    1      -12.167 119.020  93.054  0.00  0.00    -0.392 OA
ATOM     26  H   LIG    1      -11.610 118.238  93.204  0.00  0.00    +0.210 HD
ENDBRANCH  24  25
ENDBRANCH  23  24
TORSDOF 10
