REMARK  Name = 159278
REMARK                            x       y       z     vdW  Elec       q    Type
REMARK                         _______ _______ _______ _____ _____    ______ ____
ROOT
ATOM      1  O   LIG    1      -10.399 119.785  95.453  0.00  0.00    -0.341 OA
ATOM      2  C   LIG    1       -9.597 118.742  96.005  0.00  0.00    +0.282 C 
ATOM      3  C   LIG    1      -10.090 118.372  97.403  0.00  0.00    +0.201 C 
ATOM      4  C   LIG    1      -11.581 118.031  97.396  0.00  0.00    +0.179 C 
ATOM      5  C   LIG    1      -12.388 119.097  96.654  0.00  0.00    +0.177 C 
ATOM     23  C   LIG    1      -11.764 119.399  95.290  0.00  0.00    +0.178 C 
ENDROOT
BRANCH   5   6
ATOM      6  O   LIG    1      -13.723 118.634  96.469  0.00  0.00    -0.386 OA
ATOM      7  H   LIG    1      -14.326 119.377  96.642  0.00  0.00    +0.210 HD
ENDBRANCH   5   6
BRANCH   4   8
ATOM      8  O   LIG    1      -12.061 117.969  98.739  0.00  0.00    -0.386 OA
ATOM      9  H   LIG    1      -11.604 117.232  99.179  0.00  0.00    +0.210 HD
ENDBRANCH   4   8
BRANCH   3  10
ATOM     10  O   LIG    1       -9.349 117.238  97.853  0.00  0.00    -0.384 OA
ATOM     11  H   LIG    1       -8.453 117.295  97.479  0.00  0.00    +0.210 HD
ENDBRANCH   3  10
BRANCH   2  12
ATOM     12  O   LIG    1       -8.245 119.182  96.118  0.00  0.00    -0.348 OA
BRANCH  12  13
ATOM     13  C   LIG    1       -8.105 120.532  95.701  0.00  0.00    +0.168 C 
BRANCH  13  14
ATOM     14  C   LIG    1       -6.784 121.095  96.214  0.00  0.00    +0.063 C 
BRANCH  14  15
ATOM     15  C   LIG    1       -6.044 120.114  97.090  0.00  0.00    -0.045 A 
ATOM     16  C   LIG    1       -6.277 120.114  98.456  0.00  0.00    +0.007 A 
ATOM     17  C   LIG    1       -5.594 119.208  99.267  0.00  0.00    +0.045 A 
ATOM     18  C   LIG    1       -4.686 118.315  98.701  0.00  0.00    +0.117 A 
ATOM     19  C   LIG    1       -4.461 118.326  97.324  0.00  0.00    +0.045 A 
ATOM     22  C   LIG    1       -5.145 119.233  96.514  0.00  0.00    +0.007 A 
BRANCH  18  20
ATOM     20  O   LIG    1       -4.018 117.430  99.491  0.00  0.00    -0.507 OA
ATOM     21  H   LIG    1       -3.117 117.314  99.143  0.00  0.00    +0.292 HD
ENDBRANCH  18  20
ENDBRANCH  14  15
ENDBRANCH  13  14
ENDBRANCH  12  13
ENDBRANCH   2  12
BRANCH  23  24
ATOM     24  C   LIG    1      -12.483 120.542  94.581  0.00  0.00    +0.190 C 
BRANCH  24  25
ATOM     25  O   LIG    1      -13.543 120.990  95.405  0.00  0.00    -0.392 OA
ATOM     26  H   LIG    1      -14.278 120.362  95.305  0.00  0.00    +0.210 HD
ENDBRANCH  24  25
ENDBRANCH  23  24
TORSDOF 10
