REMARK  Name = 159278
REMARK                            x       y       z     vdW  Elec       q    Type
REMARK                         _______ _______ _______ _____ _____    ______ ____
ROOT
ATOM      1  O   LIG    1       -9.403 120.179  93.148  0.00  0.00    -0.341 OA
ATOM      2  C   LIG    1       -8.388 120.662  92.269  0.00  0.00    +0.282 C 
ATOM      3  C   LIG    1       -8.342 119.822  90.993  0.00  0.00    +0.201 C 
ATOM      4  C   LIG    1       -9.716 119.747  90.326  0.00  0.00    +0.179 C 
ATOM      5  C   LIG    1      -10.803 119.381  91.338  0.00  0.00    +0.177 C 
ATOM     23  C   LIG    1      -10.710 120.270  92.579  0.00  0.00    +0.178 C 
ENDROOT
BRANCH   5   6
ATOM      6  O   LIG    1      -12.083 119.547  90.734  0.00  0.00    -0.386 OA
ATOM      7  H   LIG    1      -12.637 118.790  90.990  0.00  0.00    +0.210 HD
ENDBRANCH   5   6
BRANCH   4   8
ATOM      8  O   LIG    1       -9.699 118.740  89.313  0.00  0.00    -0.386 OA
ATOM      9  H   LIG    1      -10.620 118.473  89.152  0.00  0.00    +0.210 HD
ENDBRANCH   4   8
BRANCH   3  10
ATOM     10  O   LIG    1       -7.412 120.426  90.094  0.00  0.00    -0.384 OA
ATOM     11  H   LIG    1       -6.664 120.764  90.615  0.00  0.00    +0.210 HD
ENDBRANCH   3  10
BRANCH   2  12
ATOM     12  O   LIG    1       -7.115 120.566  92.904  0.00  0.00    -0.348 OA
BRANCH  12  13
ATOM     13  C   LIG    1       -7.219 119.948  94.179  0.00  0.00    +0.168 C 
BRANCH  13  14
ATOM     14  C   LIG    1       -6.534 120.815  95.229  0.00  0.00    +0.063 C 
BRANCH  14  15
ATOM     15  C   LIG    1       -5.884 119.993  96.316  0.00  0.00    -0.045 A 
ATOM     16  C   LIG    1       -4.504 119.863  96.335  0.00  0.00    +0.007 A 
ATOM     17  C   LIG    1       -3.903 119.104  97.339  0.00  0.00    +0.045 A 
ATOM     18  C   LIG    1       -4.689 118.486  98.311  0.00  0.00    +0.117 A 
ATOM     19  C   LIG    1       -6.077 118.626  98.279  0.00  0.00    +0.045 A 
ATOM     22  C   LIG    1       -6.677 119.385  97.274  0.00  0.00    +0.007 A 
BRANCH  18  20
ATOM     20  O   LIG    1       -4.103 117.745  99.291  0.00  0.00    -0.507 OA
ATOM     21  H   LIG    1       -3.162 117.625  99.076  0.00  0.00    +0.292 HD
ENDBRANCH  18  20
ENDBRANCH  14  15
ENDBRANCH  13  14
ENDBRANCH  12  13
ENDBRANCH   2  12
BRANCH  23  24
ATOM     24  C   LIG    1      -11.708 119.848  93.652  0.00  0.00    +0.190 C 
BRANCH  24  25
ATOM     25  O   LIG    1      -12.453 118.747  93.168  0.00  0.00    -0.392 OA
ATOM     26  H   LIG    1      -13.132 119.093  92.564  0.00  0.00    +0.210 HD
ENDBRANCH  24  25
ENDBRANCH  23  24
TORSDOF 10
