REMARK  Name = 159278
REMARK                            x       y       z     vdW  Elec       q    Type
REMARK                         _______ _______ _______ _____ _____    ______ ____
ROOT
ATOM      1  O   LIG    1       -9.996 120.733  92.751  0.00  0.00    -0.341 OA
ATOM      2  C   LIG    1       -9.033 121.430  91.963  0.00  0.00    +0.282 C 
ATOM      3  C   LIG    1       -8.408 120.493  90.930  0.00  0.00    +0.201 C 
ATOM      4  C   LIG    1       -9.478 119.802  90.084  0.00  0.00    +0.179 C 
ATOM      5  C   LIG    1      -10.577 119.204  90.963  0.00  0.00    +0.177 C 
ATOM     23  C   LIG    1      -11.085 120.234  91.974  0.00  0.00    +0.178 C 
ENDROOT
BRANCH   5   6
ATOM      6  O   LIG    1      -11.659 118.778  90.139  0.00  0.00    -0.386 OA
ATOM      7  H   LIG    1      -11.301 118.557  89.263  0.00  0.00    +0.210 HD
ENDBRANCH   5   6
BRANCH   4   8
ATOM      8  O   LIG    1       -8.882 118.740  89.338  0.00  0.00    -0.386 OA
ATOM      9  H   LIG    1       -9.603 118.233  88.927  0.00  0.00    +0.210 HD
ENDBRANCH   4   8
BRANCH   3  10
ATOM     10  O   LIG    1       -7.559 121.265  90.081  0.00  0.00    -0.384 OA
ATOM     11  H   LIG    1       -6.953 121.777  90.643  0.00  0.00    +0.210 HD
ENDBRANCH   3  10
BRANCH   2  12
ATOM     12  O   LIG    1       -7.988 121.921  92.800  0.00  0.00    -0.348 OA
BRANCH  12  13
ATOM     13  C   LIG    1       -7.550 120.928  93.715  0.00  0.00    +0.168 C 
BRANCH  13  14
ATOM     14  C   LIG    1       -6.501 121.517  94.651  0.00  0.00    +0.063 C 
BRANCH  14  15
ATOM     15  C   LIG    1       -5.984 120.504  95.644  0.00  0.00    -0.045 A 
ATOM     16  C   LIG    1       -6.885 119.704  96.329  0.00  0.00    +0.007 A 
ATOM     17  C   LIG    1       -6.408 118.768  97.246  0.00  0.00    +0.045 A 
ATOM     18  C   LIG    1       -5.037 118.643  97.465  0.00  0.00    +0.117 A 
ATOM     19  C   LIG    1       -4.142 119.455  96.768  0.00  0.00    +0.045 A 
ATOM     22  C   LIG    1       -4.620 120.392  95.851  0.00  0.00    +0.007 A 
BRANCH  18  20
ATOM     20  O   LIG    1       -4.570 117.729  98.360  0.00  0.00    -0.507 OA
ATOM     21  H   LIG    1       -3.600 117.702  98.305  0.00  0.00    +0.292 HD
ENDBRANCH  18  20
ENDBRANCH  14  15
ENDBRANCH  13  14
ENDBRANCH  12  13
ENDBRANCH   2  12
BRANCH  23  24
ATOM     24  C   LIG    1      -12.098 119.627  92.938  0.00  0.00    +0.190 C 
BRANCH  24  25
ATOM     25  O   LIG    1      -11.461 119.410  94.184  0.00  0.00    -0.392 OA
ATOM     26  H   LIG    1      -10.662 119.962  94.206  0.00  0.00    +0.210 HD
ENDBRANCH  24  25
ENDBRANCH  23  24
TORSDOF 10
