REMARK  Name = 159278
REMARK                            x       y       z     vdW  Elec       q    Type
REMARK                         _______ _______ _______ _____ _____    ______ ____
ROOT
ATOM      1  O   LIG    1       -5.133 120.419  96.900  0.00  0.00    -0.341 OA
ATOM      2  C   LIG    1       -6.219 119.553  97.227  0.00  0.00    +0.282 C 
ATOM      3  C   LIG    1       -5.700 118.248  97.830  0.00  0.00    +0.201 C 
ATOM      4  C   LIG    1       -4.777 118.513  99.020  0.00  0.00    +0.179 C 
ATOM      5  C   LIG    1       -3.723 119.567  98.678  0.00  0.00    +0.177 C 
ATOM     23  C   LIG    1       -4.372 120.801  98.047  0.00  0.00    +0.178 C 
ENDROOT
BRANCH   5   6
ATOM      6  O   LIG    1       -3.037 119.951  99.867  0.00  0.00    -0.386 OA
ATOM      7  H   LIG    1       -2.104 120.102  99.641  0.00  0.00    +0.210 HD
ENDBRANCH   5   6
BRANCH   4   8
ATOM      8  O   LIG    1       -4.098 117.308  99.373  0.00  0.00    -0.386 OA
ATOM      9  H   LIG    1       -3.144 117.474  99.284  0.00  0.00    +0.210 HD
ENDBRANCH   4   8
BRANCH   3  10
ATOM     10  O   LIG    1       -6.822 117.479  98.265  0.00  0.00    -0.384 OA
ATOM     11  H   LIG    1       -6.496 116.776  98.852  0.00  0.00    +0.210 HD
ENDBRANCH   3  10
BRANCH   2  12
ATOM     12  O   LIG    1       -6.950 119.231  96.045  0.00  0.00    -0.348 OA
BRANCH  12  13
ATOM     13  C   LIG    1       -6.343 119.794  94.892  0.00  0.00    +0.168 C 
BRANCH  13  14
ATOM     14  C   LIG    1       -7.182 120.963  94.388  0.00  0.00    +0.063 C 
BRANCH  14  15
ATOM     15  C   LIG    1       -8.569 120.536  93.972  0.00  0.00    -0.045 A 
ATOM     16  C   LIG    1       -8.910 120.553  92.628  0.00  0.00    +0.007 A 
ATOM     17  C   LIG    1      -10.191 120.159  92.243  0.00  0.00    +0.045 A 
ATOM     18  C   LIG    1      -11.114 119.753  93.206  0.00  0.00    +0.117 A 
ATOM     19  C   LIG    1      -10.757 119.742  94.555  0.00  0.00    +0.045 A 
ATOM     22  C   LIG    1       -9.475 120.136  94.939  0.00  0.00    +0.007 A 
BRANCH  18  20
ATOM     20  O   LIG    1      -12.365 119.368  92.831  0.00  0.00    -0.507 OA
ATOM     21  H   LIG    1      -12.472 118.420  93.018  0.00  0.00    +0.292 HD
ENDBRANCH  18  20
ENDBRANCH  14  15
ENDBRANCH  13  14
ENDBRANCH  12  13
ENDBRANCH   2  12
BRANCH  23  24
ATOM     24  C   LIG    1       -3.331 121.816  97.590  0.00  0.00    +0.190 C 
BRANCH  24  25
ATOM     25  O   LIG    1       -2.064 121.186  97.569  0.00  0.00    -0.392 OA
ATOM     26  H   LIG    1       -1.882 120.861  98.467  0.00  0.00    +0.210 HD
ENDBRANCH  24  25
ENDBRANCH  23  24
TORSDOF 10
