REMARK  Name = 159278
REMARK                            x       y       z     vdW  Elec       q    Type
REMARK                         _______ _______ _______ _____ _____    ______ ____
ROOT
ATOM      1  O   LIG    1       -6.395 119.682  96.078  0.00  0.00    -0.341 OA
ATOM      2  C   LIG    1       -6.005 119.089  97.315  0.00  0.00    +0.282 C 
ATOM      3  C   LIG    1       -4.482 119.047  97.432  0.00  0.00    +0.201 C 
ATOM      4  C   LIG    1       -3.869 120.432  97.221  0.00  0.00    +0.179 C 
ATOM      5  C   LIG    1       -4.434 121.101  95.967  0.00  0.00    +0.177 C 
ATOM     23  C   LIG    1       -5.963 121.038  95.959  0.00  0.00    +0.178 C 
ENDROOT
BRANCH   5   6
ATOM      6  O   LIG    1       -4.019 122.464  95.933  0.00  0.00    -0.386 OA
ATOM      7  H   LIG    1       -4.777 123.016  96.190  0.00  0.00    +0.210 HD
ENDBRANCH   5   6
BRANCH   4   8
ATOM      8  O   LIG    1       -2.456 120.307  97.056  0.00  0.00    -0.386 OA
ATOM      9  H   LIG    1       -2.118 119.801  97.814  0.00  0.00    +0.210 HD
ENDBRANCH   4   8
BRANCH   3  10
ATOM     10  O   LIG    1       -4.146 118.576  98.737  0.00  0.00    -0.384 OA
ATOM     11  H   LIG    1       -3.177 118.526  98.800  0.00  0.00    +0.210 HD
ENDBRANCH   3  10
BRANCH   2  12
ATOM     12  O   LIG    1       -6.487 117.748  97.380  0.00  0.00    -0.348 OA
BRANCH  12  13
ATOM     13  C   LIG    1       -7.342 117.560  98.499  0.00  0.00    +0.168 C 
BRANCH  13  14
ATOM     14  C   LIG    1       -8.293 118.745  98.625  0.00  0.00    +0.063 C 
BRANCH  14  15
ATOM     15  C   LIG    1       -9.355 118.745  97.552  0.00  0.00    -0.045 A 
ATOM     16  C   LIG    1      -10.312 117.743  97.543  0.00  0.00    +0.007 A 
ATOM     17  C   LIG    1      -11.293 117.742  96.551  0.00  0.00    +0.045 A 
ATOM     18  C   LIG    1      -11.304 118.744  95.582  0.00  0.00    +0.117 A 
ATOM     19  C   LIG    1      -10.334 119.747  95.603  0.00  0.00    +0.045 A 
ATOM     22  C   LIG    1       -9.353 119.747  96.595  0.00  0.00    +0.007 A 
BRANCH  18  20
ATOM     20  O   LIG    1      -12.261 118.745  94.614  0.00  0.00    -0.507 OA
ATOM     21  H   LIG    1      -12.043 118.064  93.955  0.00  0.00    +0.292 HD
ENDBRANCH  18  20
ENDBRANCH  14  15
ENDBRANCH  13  14
ENDBRANCH  12  13
ENDBRANCH   2  12
BRANCH  23  24
ATOM     24  C   LIG    1       -6.545 121.594  94.664  0.00  0.00    +0.190 C 
BRANCH  24  25
ATOM     25  O   LIG    1       -6.232 122.972  94.583  0.00  0.00    -0.392 OA
ATOM     26  H   LIG    1       -5.266 123.051  94.507  0.00  0.00    +0.210 HD
ENDBRANCH  24  25
ENDBRANCH  23  24
TORSDOF 10
