
 OpenBabel07162211283D

 19 20  0  0  0  0  0  0  0  0999 V2000
   -3.0194    3.0231    0.0292 C   0  0  0  0  0  0  0  0  0  0  0  0
   -1.9252    2.1635   -0.2722 O   0  0  0  0  0  0  0  0  0  0  0  0
   -1.8988    0.8272    0.1323 C   0  0  0  0  0  0  0  0  0  0  0  0
   -0.7019    0.1655    0.3800 C   0  0  0  0  0  0  0  0  0  0  0  0
   -0.6557   -1.1919    0.6221 C   0  0  0  0  0  0  0  0  0  0  0  0
    0.4839   -2.0451    0.2888 C   0  0  0  0  0  0  0  0  0  0  0  0
    1.3327   -1.5334   -0.6017 C   0  0  0  0  0  0  0  0  0  0  0  0
    1.9307   -0.2654   -0.1536 C   0  0  0  0  0  0  0  0  0  0  0  0
    2.9761   -0.3967    0.7544 C   0  0  0  0  0  0  0  0  0  0  0  0
    4.1112    0.3874    0.7009 C   0  0  0  0  0  0  0  0  0  0  0  0
    4.0504    1.5687   -0.0084 C   0  0  0  0  0  0  0  0  0  0  0  0
    4.7322    2.7171    0.4035 O   0  0  0  0  0  0  0  0  0  0  0  0
    3.0567    1.6874   -0.9589 C   0  0  0  0  0  0  0  0  0  0  0  0
    2.1821    0.6523   -1.1680 C   0  0  0  0  0  0  0  0  0  0  0  0
   -1.8818   -1.8485    0.6001 C   0  0  0  0  0  0  0  0  0  0  0  0
   -3.0759   -1.1913    0.4040 C   0  0  0  0  0  0  0  0  0  0  0  0
   -4.2857   -1.8576    0.3264 O   0  0  0  0  0  0  0  0  0  0  0  0
   -4.3257   -3.0349   -0.4493 C   0  0  0  0  0  0  0  0  0  0  0  0
   -3.0858    0.1728    0.2999 C   0  0  0  0  0  0  0  0  0  0  0  0
  1  2  1  0  0  0  0
  2  3  1  0  0  0  0
  3  4  2  0  0  0  0
  4  5  1  0  0  0  0
  5  6  1  0  0  0  0
  5 15  2  0  0  0  0
  6  7  2  0  0  0  0
  7  8  1  0  0  0  0
  8  9  2  0  0  0  0
  9 10  1  0  0  0  0
 10 11  2  0  0  0  0
 11 12  1  0  0  0  0
 11 13  1  0  0  0  0
 13 14  2  0  0  0  0
 14  8  1  0  0  0  0
 15 16  1  0  0  0  0
 16 17  1  0  0  0  0
 16 19  2  0  0  0  0
 17 18  1  0  0  0  0
 19  3  1  0  0  0  0
M  END
>  <zinc_id>
ZINC000000003225

>  <smiles>
COc1cc(/C=C\c2ccc(O)cc2)cc(OC)c1

$$$$
