
 OpenBabel07162211283D

 28 30  0  0  0  0  0  0  0  0999 V2000
   -4.2789   -0.6153   -2.9050 O   0  0  0  0  0  0  0  0  0  0  0  0
   -4.1208   -0.4039   -1.7095 C   0  0  0  0  0  0  0  0  0  0  0  0
   -4.0023    1.2739   -1.7358 C   0  0  2  0  0  0  0  0  0  0  0  0
   -3.1729    1.5732   -0.5236 O   0  0  0  0  0  0  0  0  0  0  0  0
   -2.7648    0.4540    0.4229 C   0  0  2  0  0  0  0  0  0  0  0  0
   -2.2785   -0.5612   -0.7033 O   0  0  0  0  0  0  0  0  0  0  0  0
   -1.0279   -1.0578   -0.3219 C   0  0  0  0  0  0  0  0  0  0  0  0
   -0.9286   -2.2470    0.3672 C   0  0  0  0  0  0  0  0  0  0  0  0
    0.1769   -2.5470    1.1513 C   0  0  0  0  0  0  0  0  0  0  0  0
    0.3828   -3.8668    1.5199 O   0  0  0  0  0  0  0  0  0  0  0  0
    1.2194   -1.6307    1.0922 C   0  0  0  0  0  0  0  0  0  0  0  0
    1.2835   -0.6198    0.1684 C   0  0  0  0  0  0  0  0  0  0  0  0
    2.5454   -0.0756   -0.3455 C   0  0  0  0  0  0  0  0  0  0  0  0
    3.6031   -0.8499   -0.2356 C   0  0  0  0  0  0  0  0  0  0  0  0
    4.9802   -0.3684   -0.3175 C   0  0  0  0  0  0  0  0  0  0  0  0
    5.3074    0.3264   -1.4619 C   0  0  0  0  0  0  0  0  0  0  0  0
    6.5217    0.9941   -1.5084 C   0  0  0  0  0  0  0  0  0  0  0  0
    7.1092    1.3651   -0.3154 C   0  0  0  0  0  0  0  0  0  0  0  0
    8.0544    2.3868   -0.2871 O   0  0  0  0  0  0  0  0  0  0  0  0
    6.7265    0.7317    0.8447 C   0  0  0  0  0  0  0  0  0  0  0  0
    5.6341   -0.1232    0.8629 C   0  0  0  0  0  0  0  0  0  0  0  0
    0.1394   -0.3490   -0.5593 C   0  0  0  0  0  0  0  0  0  0  0  0
   -4.4035   -0.1994    0.5404 C   0  0  1  0  0  0  0  0  0  0  0  0
   -4.3108   -0.3143    2.0336 O   0  0  0  0  0  0  0  0  0  0  0  0
   -4.9772    1.4289    0.6596 C   0  0  2  0  0  0  0  0  0  0  0  0
   -6.3198    0.9414    1.1750 O   0  0  0  0  0  0  0  0  0  0  0  0
   -5.5808    1.4246   -0.9561 C   0  0  1  0  0  0  0  0  0  0  0  0
   -5.5171    2.9295   -1.0340 O   0  0  0  0  0  0  0  0  0  0  0  0
  1  2  1  0  0  0  0
  3  2  1  1  0  0  0
  3  4  1  0  0  0  0
  4  5  1  0  0  0  0
  5  6  1  6  0  0  0
  5 23  1  0  0  0  0
  6  7  1  0  0  0  0
  7  8  2  0  0  0  0
  8  9  1  0  0  0  0
  9 10  1  0  0  0  0
  9 11  2  0  0  0  0
 11 12  1  0  0  0  0
 12 13  1  0  0  0  0
 12 22  2  0  0  0  0
 13 14  2  0  0  0  0
 14 15  1  0  0  0  0
 15 16  2  0  0  0  0
 16 17  1  0  0  0  0
 17 18  2  0  0  0  0
 18 19  1  0  0  0  0
 18 20  1  0  0  0  0
 20 21  2  0  0  0  0
 21 15  1  0  0  0  0
 22  7  1  0  0  0  0
 23 24  1  1  0  0  0
 23 25  1  0  0  0  0
 25 26  1  1  0  0  0
 25 27  1  0  0  0  0
 27 28  1  6  0  0  0
 27  3  1  0  0  0  0
M  END
>  <zinc_id>
ZINC000000899166

>  <smiles>
OC[C@@H]1O[C@H](Oc2cc(O)cc(/C=C/c3ccc(O)cc3)c2)[C@@H](O)[C@H](O)[C@H]1O

$$$$
