
 OpenBabel07162211283D

 19 20  0  0  0  0  0  0  0  0999 V2000
   -4.3219    3.0170    0.3157 C   0  0  0  0  0  0  0  0  0  0  0  0
   -3.2347    2.5719   -0.4837 O   0  0  0  0  0  0  0  0  0  0  0  0
   -2.8932    1.2161   -0.5107 C   0  0  0  0  0  0  0  0  0  0  0  0
   -1.5582    0.8449   -0.6164 C   0  0  0  0  0  0  0  0  0  0  0  0
   -1.0989   -0.2989   -0.0134 C   0  0  0  0  0  0  0  0  0  0  0  0
    0.2934   -0.6358    0.1696 C   0  0  0  0  0  0  0  0  0  0  0  0
    1.2299    0.1818    0.5925 C   0  0  0  0  0  0  0  0  0  0  0  0
    2.5966   -0.1045    0.1684 C   0  0  0  0  0  0  0  0  0  0  0  0
    3.2685   -1.2541    0.5690 C   0  0  0  0  0  0  0  0  0  0  0  0
    4.6496   -1.3092    0.4330 C   0  0  0  0  0  0  0  0  0  0  0  0
    5.3794   -0.2229   -0.0343 C   0  0  0  0  0  0  0  0  0  0  0  0
    6.6279    0.0577    0.5291 O   0  0  0  0  0  0  0  0  0  0  0  0
    4.6565    0.7387   -0.7296 C   0  0  0  0  0  0  0  0  0  0  0  0
    3.2691    0.6782   -0.7616 C   0  0  0  0  0  0  0  0  0  0  0  0
   -2.0341   -1.3071    0.1883 C   0  0  0  0  0  0  0  0  0  0  0  0
   -3.3973   -1.0553    0.1884 C   0  0  0  0  0  0  0  0  0  0  0  0
   -4.2790   -1.8960    0.8600 O   0  0  0  0  0  0  0  0  0  0  0  0
   -5.3674   -1.4412    1.6230 C   0  0  0  0  0  0  0  0  0  0  0  0
   -3.7862    0.2186   -0.1841 C   0  0  0  0  0  0  0  0  0  0  0  0
  1  2  1  0  0  0  0
  2  3  1  0  0  0  0
  3  4  2  0  0  0  0
  4  5  1  0  0  0  0
  5  6  1  0  0  0  0
  5 15  2  0  0  0  0
  6  7  2  0  0  0  0
  7  8  1  0  0  0  0
  8  9  2  0  0  0  0
  9 10  1  0  0  0  0
 10 11  2  0  0  0  0
 11 12  1  0  0  0  0
 11 13  1  0  0  0  0
 13 14  2  0  0  0  0
 14  8  1  0  0  0  0
 15 16  1  0  0  0  0
 16 17  1  0  0  0  0
 16 19  2  0  0  0  0
 17 18  1  0  0  0  0
 19  3  1  0  0  0  0
M  END
>  <zinc_id>
ZINC000000899213

>  <smiles>
COc1cc(/C=C/c2ccc(O)cc2)cc(OC)c1

$$$$
