
 OpenBabel07162211283D

 21 22  0  0  0  0  0  0  0  0999 V2000
   -6.1552    1.7550   -0.9299 C   0  0  0  0  0  0  0  0  0  0  0  0
   -4.7627    1.9572   -0.9570 O   0  0  0  0  0  0  0  0  0  0  0  0
   -3.8638    1.0541   -0.4230 C   0  0  0  0  0  0  0  0  0  0  0  0
   -2.5218    1.1334   -0.7489 C   0  0  0  0  0  0  0  0  0  0  0  0
   -1.6361    0.1570   -0.3101 C   0  0  0  0  0  0  0  0  0  0  0  0
   -0.2083    0.4455   -0.4743 C   0  0  0  0  0  0  0  0  0  0  0  0
    0.7122   -0.4845   -0.5487 C   0  0  0  0  0  0  0  0  0  0  0  0
    2.0232   -0.3989    0.0837 C   0  0  0  0  0  0  0  0  0  0  0  0
    2.1721   -0.1450    1.4420 C   0  0  0  0  0  0  0  0  0  0  0  0
    3.2443    0.6212    1.8823 C   0  0  0  0  0  0  0  0  0  0  0  0
    4.3360    0.8403    1.0535 C   0  0  0  0  0  0  0  0  0  0  0  0
    5.2071    1.8919    1.2342 O   0  0  0  0  0  0  0  0  0  0  0  0
    4.3678    0.1163   -0.1319 C   0  0  0  0  0  0  0  0  0  0  0  0
    5.6146   -0.1209   -0.7134 O   0  0  0  0  0  0  0  0  0  0  0  0
    6.2185   -1.3916   -0.4806 C   0  0  0  0  0  0  0  0  0  0  0  0
    3.2093   -0.4622   -0.6366 C   0  0  0  0  0  0  0  0  0  0  0  0
   -2.0909   -0.6232    0.7460 C   0  0  0  0  0  0  0  0  0  0  0  0
   -3.4321   -0.9392    0.8710 C   0  0  0  0  0  0  0  0  0  0  0  0
   -3.8733   -2.2276    1.1788 O   0  0  0  0  0  0  0  0  0  0  0  0
   -4.2601   -3.0380    0.0720 C   0  0  0  0  0  0  0  0  0  0  0  0
   -4.3008   -0.1405    0.1366 C   0  0  0  0  0  0  0  0  0  0  0  0
  1  2  1  0  0  0  0
  2  3  1  0  0  0  0
  3  4  2  0  0  0  0
  4  5  1  0  0  0  0
  5  6  1  0  0  0  0
  5 17  2  0  0  0  0
  6  7  2  0  0  0  0
  7  8  1  0  0  0  0
  8  9  2  0  0  0  0
  9 10  1  0  0  0  0
 10 11  2  0  0  0  0
 11 12  1  0  0  0  0
 11 13  1  0  0  0  0
 13 14  1  0  0  0  0
 13 16  2  0  0  0  0
 14 15  1  0  0  0  0
 16  8  1  0  0  0  0
 17 18  1  0  0  0  0
 18 19  1  0  0  0  0
 18 21  2  0  0  0  0
 19 20  1  0  0  0  0
 21  3  1  0  0  0  0
M  END
>  <zinc_id>
ZINC000001591265

>  <smiles>
COc1cc(/C=C/c2ccc(O)c(OC)c2)cc(OC)c1

$$$$
