
 OpenBabel07162211283D

 21 22  0  0  0  0  0  0  0  0999 V2000
   -3.1939    0.3642    2.8271 C   0  0  0  0  0  0  0  0  0  0  0  0
   -3.5458   -0.8796    2.2246 O   0  0  0  0  0  0  0  0  0  0  0  0
   -3.3931   -0.9219    0.8348 C   0  0  0  0  0  0  0  0  0  0  0  0
   -2.3566   -1.5946    0.2187 C   0  0  0  0  0  0  0  0  0  0  0  0
   -1.7813   -1.1602   -0.9686 C   0  0  0  0  0  0  0  0  0  0  0  0
   -0.3363   -1.2802   -1.2079 C   0  0  0  0  0  0  0  0  0  0  0  0
    0.4389   -0.4118   -0.6033 C   0  0  0  0  0  0  0  0  0  0  0  0
    1.7764   -0.7396   -0.0881 C   0  0  0  0  0  0  0  0  0  0  0  0
    2.0932   -0.4698    1.2389 C   0  0  0  0  0  0  0  0  0  0  0  0
    3.2712    0.1808    1.5887 C   0  0  0  0  0  0  0  0  0  0  0  0
    4.2638    0.3788    0.6355 C   0  0  0  0  0  0  0  0  0  0  0  0
    5.0719    1.5197    0.6685 O   0  0  0  0  0  0  0  0  0  0  0  0
    4.6579    2.7063    1.3255 C   0  0  0  0  0  0  0  0  0  0  0  0
    4.0930   -0.2760   -0.5758 C   0  0  0  0  0  0  0  0  0  0  0  0
    5.2295   -0.4155   -1.3766 O   0  0  0  0  0  0  0  0  0  0  0  0
    2.8769   -0.8453   -0.9307 C   0  0  0  0  0  0  0  0  0  0  0  0
   -2.4888   -0.1805   -1.6520 C   0  0  0  0  0  0  0  0  0  0  0  0
   -3.7382    0.2542   -1.2535 C   0  0  0  0  0  0  0  0  0  0  0  0
   -4.3142    1.3807   -1.8456 O   0  0  0  0  0  0  0  0  0  0  0  0
   -4.4321    2.5496   -1.0520 C   0  0  0  0  0  0  0  0  0  0  0  0
   -4.1925   -0.1593   -0.0084 C   0  0  0  0  0  0  0  0  0  0  0  0
  1  2  1  0  0  0  0
  2  3  1  0  0  0  0
  3  4  2  0  0  0  0
  4  5  1  0  0  0  0
  5  6  1  0  0  0  0
  5 17  2  0  0  0  0
  6  7  2  0  0  0  0
  7  8  1  0  0  0  0
  8  9  2  0  0  0  0
  9 10  1  0  0  0  0
 10 11  2  0  0  0  0
 11 12  1  0  0  0  0
 11 14  1  0  0  0  0
 12 13  1  0  0  0  0
 14 15  1  0  0  0  0
 14 16  2  0  0  0  0
 16  8  1  0  0  0  0
 17 18  1  0  0  0  0
 18 19  1  0  0  0  0
 18 21  2  0  0  0  0
 19 20  1  0  0  0  0
 21  3  1  0  0  0  0
M  END
>  <zinc_id>
ZINC000001591410

>  <smiles>
COc1cc(/C=C/c2ccc(OC)c(O)c2)cc(OC)c1

$$$$
