
 OpenBabel07162211283D

 24 25  0  0  0  0  0  0  0  0999 V2000
    6.3684   -1.0672   -0.9672 C   0  0  0  0  0  0  0  0  0  0  0  0
    5.5440    0.0696   -0.7825 O   0  0  0  0  0  0  0  0  0  0  0  0
    4.2889   -0.1095   -0.2167 C   0  0  0  0  0  0  0  0  0  0  0  0
    4.1871   -1.0777    0.7739 C   0  0  0  0  0  0  0  0  0  0  0  0
    3.0733   -1.1298    1.6034 C   0  0  0  0  0  0  0  0  0  0  0  0
    2.2034   -0.0735    1.6691 C   0  0  0  0  0  0  0  0  0  0  0  0
    0.8014   -0.2100    2.0877 C   0  0  0  0  0  0  0  0  0  0  0  0
   -0.0765   -0.9556    1.4678 C   0  0  0  0  0  0  0  0  0  0  0  0
   -1.4063   -0.5436    1.0690 C   0  0  0  0  0  0  0  0  0  0  0  0
   -2.2665   -1.5236    0.5874 C   0  0  0  0  0  0  0  0  0  0  0  0
   -3.1817   -1.2452   -0.4208 C   0  0  0  0  0  0  0  0  0  0  0  0
   -3.9784   -2.2456   -0.9573 O   0  0  0  0  0  0  0  0  0  0  0  0
   -5.3768   -2.2705   -0.7035 C   0  0  0  0  0  0  0  0  0  0  0  0
   -3.4525    0.0638   -0.7648 C   0  0  0  0  0  0  0  0  0  0  0  0
   -4.6184    0.4471   -1.4233 O   0  0  0  0  0  0  0  0  0  0  0  0
   -5.4025    1.5327   -0.9553 C   0  0  0  0  0  0  0  0  0  0  0  0
   -2.5160    1.0264   -0.4100 C   0  0  0  0  0  0  0  0  0  0  0  0
   -2.4115    2.1961   -1.1465 O   0  0  0  0  0  0  0  0  0  0  0  0
   -1.2993    2.4201   -2.0084 C   0  0  0  0  0  0  0  0  0  0  0  0
   -1.7366    0.7547    0.7049 C   0  0  0  0  0  0  0  0  0  0  0  0
    2.4895    1.0187    0.8581 C   0  0  0  0  0  0  0  0  0  0  0  0
    1.7139    2.1584    1.0759 O   0  0  0  0  0  0  0  0  0  0  0  0
    3.4237    0.9736   -0.1552 C   0  0  0  0  0  0  0  0  0  0  0  0
    3.6293    2.0687   -0.9859 O   0  0  0  0  0  0  0  0  0  0  0  0
  1  2  1  0  0  0  0
  2  3  1  0  0  0  0
  3  4  2  0  0  0  0
  4  5  1  0  0  0  0
  5  6  2  0  0  0  0
  6  7  1  0  0  0  0
  6 21  1  0  0  0  0
  7  8  2  0  0  0  0
  8  9  1  0  0  0  0
  9 10  2  0  0  0  0
 10 11  1  0  0  0  0
 11 12  1  0  0  0  0
 11 14  2  0  0  0  0
 12 13  1  0  0  0  0
 14 15  1  0  0  0  0
 14 17  1  0  0  0  0
 15 16  1  0  0  0  0
 17 18  1  0  0  0  0
 17 20  2  0  0  0  0
 18 19  1  0  0  0  0
 20  9  1  0  0  0  0
 21 22  1  0  0  0  0
 21 23  2  0  0  0  0
 23 24  1  0  0  0  0
 23  3  1  0  0  0  0
M  END
>  <zinc_id>
ZINC000001607446

>  <smiles>
COc1ccc(/C=C/c2cc(OC)c(OC)c(OC)c2)c(O)c1O

$$$$
