
 OpenBabel07162211283D

 23 24  0  0  0  0  0  0  0  0999 V2000
    7.0047   -0.2845    1.0351 C   0  0  0  0  0  0  0  0  0  0  0  0
    6.0448    0.3921    0.2384 O   0  0  0  0  0  0  0  0  0  0  0  0
    4.7707   -0.1538    0.0591 C   0  0  0  0  0  0  0  0  0  0  0  0
    4.4208   -1.3992    0.5426 C   0  0  0  0  0  0  0  0  0  0  0  0
    3.0984   -1.8125    0.6522 C   0  0  0  0  0  0  0  0  0  0  0  0
    2.1349   -1.1154   -0.0556 C   0  0  0  0  0  0  0  0  0  0  0  0
    0.7475   -1.5110   -0.1440 C   0  0  0  0  0  0  0  0  0  0  0  0
   -0.1155   -1.5356    0.8402 C   0  0  0  0  0  0  0  0  0  0  0  0
   -1.4127   -0.8516    0.8175 C   0  0  0  0  0  0  0  0  0  0  0  0
   -1.5337    0.5196    1.0124 C   0  0  0  0  0  0  0  0  0  0  0  0
   -2.4696    1.2819    0.3400 C   0  0  0  0  0  0  0  0  0  0  0  0
   -2.2126    2.5788   -0.1128 O   0  0  0  0  0  0  0  0  0  0  0  0
   -1.1560    2.7862   -1.0473 C   0  0  0  0  0  0  0  0  0  0  0  0
   -3.5898    0.6160   -0.1413 C   0  0  0  0  0  0  0  0  0  0  0  0
   -4.7230    1.3555   -0.4733 O   0  0  0  0  0  0  0  0  0  0  0  0
   -4.8853    2.6911   -0.0517 C   0  0  0  0  0  0  0  0  0  0  0  0
   -3.6733   -0.7579   -0.0660 C   0  0  0  0  0  0  0  0  0  0  0  0
   -4.9091   -1.3493   -0.3112 O   0  0  0  0  0  0  0  0  0  0  0  0
   -5.1838   -2.6819    0.0371 C   0  0  0  0  0  0  0  0  0  0  0  0
   -2.5628   -1.4680    0.3392 C   0  0  0  0  0  0  0  0  0  0  0  0
    2.4464    0.1966   -0.3891 C   0  0  0  0  0  0  0  0  0  0  0  0
    3.7329    0.6602   -0.3373 C   0  0  0  0  0  0  0  0  0  0  0  0
    4.0261    1.8427   -1.0085 O   0  0  0  0  0  0  0  0  0  0  0  0
  1  2  1  0  0  0  0
  2  3  1  0  0  0  0
  3  4  2  0  0  0  0
  4  5  1  0  0  0  0
  5  6  2  0  0  0  0
  6  7  1  0  0  0  0
  6 21  1  0  0  0  0
  7  8  2  0  0  0  0
  8  9  1  0  0  0  0
  9 10  2  0  0  0  0
 10 11  1  0  0  0  0
 11 12  1  0  0  0  0
 11 14  2  0  0  0  0
 12 13  1  0  0  0  0
 14 15  1  0  0  0  0
 14 17  1  0  0  0  0
 15 16  1  0  0  0  0
 17 18  1  0  0  0  0
 17 20  2  0  0  0  0
 18 19  1  0  0  0  0
 20  9  1  0  0  0  0
 21 22  2  0  0  0  0
 22 23  1  0  0  0  0
 22  3  1  0  0  0  0
M  END
>  <zinc_id>
ZINC000001611146

>  <smiles>
COc1ccc(/C=C/c2cc(OC)c(OC)c(OC)c2)cc1O

$$$$
