
 OpenBabel07162211283D

 21 22  0  0  0  0  0  0  0  0999 V2000
   -3.1621    3.3286   -0.7502 C   0  0  0  0  0  0  0  0  0  0  0  0
   -3.2301    2.2868    0.2054 O   0  0  0  0  0  0  0  0  0  0  0  0
   -2.6114    1.0488    0.0170 C   0  0  0  0  0  0  0  0  0  0  0  0
   -1.2537    0.9301   -0.1444 C   0  0  0  0  0  0  0  0  0  0  0  0
   -0.5639   -0.2491    0.1099 C   0  0  0  0  0  0  0  0  0  0  0  0
    0.6710   -0.4340   -0.6620 C   0  0  0  0  0  0  0  0  0  0  0  0
    1.7485   -0.9944   -0.1687 C   0  0  0  0  0  0  0  0  0  0  0  0
    3.0666   -0.5715   -0.6582 C   0  0  0  0  0  0  0  0  0  0  0  0
    4.2167   -1.2790   -0.3400 C   0  0  0  0  0  0  0  0  0  0  0  0
    5.4708   -0.6820   -0.3653 C   0  0  0  0  0  0  0  0  0  0  0  0
    5.5143    0.7064   -0.3645 C   0  0  0  0  0  0  0  0  0  0  0  0
    6.7136    1.3520   -0.1191 O   0  0  0  0  0  0  0  0  0  0  0  0
    4.4034    1.4192   -0.7959 C   0  0  0  0  0  0  0  0  0  0  0  0
    3.2851    0.6930   -1.1889 C   0  0  0  0  0  0  0  0  0  0  0  0
   -1.3114   -1.3108    0.5807 C   0  0  0  0  0  0  0  0  0  0  0  0
   -2.6844   -1.2284    0.7778 C   0  0  0  0  0  0  0  0  0  0  0  0
   -3.3874   -2.4275    0.9147 O   0  0  0  0  0  0  0  0  0  0  0  0
   -3.4965   -3.2531   -0.2406 C   0  0  0  0  0  0  0  0  0  0  0  0
   -3.3272   -0.0799    0.3453 C   0  0  0  0  0  0  0  0  0  0  0  0
   -4.6827   -0.1099    0.0958 O   0  0  0  0  0  0  0  0  0  0  0  0
   -5.3794    0.8548   -0.6478 C   0  0  0  0  0  0  0  0  0  0  0  0
  1  2  1  0  0  0  0
  2  3  1  0  0  0  0
  3  4  2  0  0  0  0
  4  5  1  0  0  0  0
  5  6  1  0  0  0  0
  5 15  2  0  0  0  0
  6  7  2  0  0  0  0
  7  8  1  0  0  0  0
  8  9  2  0  0  0  0
  9 10  1  0  0  0  0
 10 11  2  0  0  0  0
 11 12  1  0  0  0  0
 11 13  1  0  0  0  0
 13 14  2  0  0  0  0
 14  8  1  0  0  0  0
 15 16  1  0  0  0  0
 16 17  1  0  0  0  0
 16 19  2  0  0  0  0
 17 18  1  0  0  0  0
 19 20  1  0  0  0  0
 19  3  1  0  0  0  0
 20 21  1  0  0  0  0
M  END
>  <zinc_id>
ZINC000001612318

>  <smiles>
COc1cc(/C=C/c2ccc(O)cc2)cc(OC)c1OC

$$$$
