
 OpenBabel07162211283D

 22 23  0  0  0  0  0  0  0  0999 V2000
   -3.4426    3.3607    0.6044 C   0  0  0  0  0  0  0  0  0  0  0  0
   -3.9783    2.2456    1.3107 O   0  0  0  0  0  0  0  0  0  0  0  0
   -3.7045    0.9463    0.8736 C   0  0  0  0  0  0  0  0  0  0  0  0
   -2.4942    0.3210    1.1498 C   0  0  0  0  0  0  0  0  0  0  0  0
   -2.0441   -0.7490    0.3868 C   0  0  0  0  0  0  0  0  0  0  0  0
   -0.6089   -0.9321    0.1432 C   0  0  0  0  0  0  0  0  0  0  0  0
    0.1383    0.0709   -0.3186 C   0  0  0  0  0  0  0  0  0  0  0  0
    1.5855   -0.0373   -0.3537 C   0  0  0  0  0  0  0  0  0  0  0  0
    2.2159   -0.8799   -1.2613 C   0  0  0  0  0  0  0  0  0  0  0  0
    3.5785   -0.7365   -1.4711 C   0  0  0  0  0  0  0  0  0  0  0  0
    4.2536    0.1901   -0.6868 C   0  0  0  0  0  0  0  0  0  0  0  0
    5.5754    0.5448   -0.9609 O   0  0  0  0  0  0  0  0  0  0  0  0
    6.5733   -0.2979   -0.4174 C   0  0  0  0  0  0  0  0  0  0  0  0
    3.7372    0.4009    0.5823 C   0  0  0  0  0  0  0  0  0  0  0  0
    4.5875    0.9239    1.5554 O   0  0  0  0  0  0  0  0  0  0  0  0
    4.2163    0.9578    2.9210 C   0  0  0  0  0  0  0  0  0  0  0  0
    2.3669    0.3683    0.7209 C   0  0  0  0  0  0  0  0  0  0  0  0
   -2.9276   -1.3240   -0.5172 C   0  0  0  0  0  0  0  0  0  0  0  0
   -4.2445   -0.9349   -0.5539 C   0  0  0  0  0  0  0  0  0  0  0  0
   -5.2270   -1.8571   -0.9063 O   0  0  0  0  0  0  0  0  0  0  0  0
   -5.6140   -2.8937   -0.0093 C   0  0  0  0  0  0  0  0  0  0  0  0
   -4.5427    0.3120   -0.0353 C   0  0  0  0  0  0  0  0  0  0  0  0
  1  2  1  0  0  0  0
  2  3  1  0  0  0  0
  3  4  2  0  0  0  0
  4  5  1  0  0  0  0
  5  6  1  0  0  0  0
  5 18  2  0  0  0  0
  6  7  2  0  0  0  0
  7  8  1  0  0  0  0
  8  9  2  0  0  0  0
  9 10  1  0  0  0  0
 10 11  2  0  0  0  0
 11 12  1  0  0  0  0
 11 14  1  0  0  0  0
 12 13  1  0  0  0  0
 14 15  1  0  0  0  0
 14 17  2  0  0  0  0
 15 16  1  0  0  0  0
 17  8  1  0  0  0  0
 18 19  1  0  0  0  0
 19 20  1  0  0  0  0
 19 22  2  0  0  0  0
 20 21  1  0  0  0  0
 22  3  1  0  0  0  0
M  END
>  <zinc_id>
ZINC000001616881

>  <smiles>
COc1cc(/C=C/c2ccc(OC)c(OC)c2)cc(OC)c1

$$$$
