
 OpenBabel07162211283D

 23 24  0  0  0  0  0  0  0  0999 V2000
    7.6553   -0.3871    0.2910 C   0  0  0  0  0  0  0  0  0  0  0  0
    7.0136    0.8604   -0.2909 C   0  0  0  0  0  0  0  0  0  0  0  0
    5.9696    0.4781   -1.1498 O   0  0  0  0  0  0  0  0  0  0  0  0
    4.7152    0.2185   -0.6310 C   0  0  0  0  0  0  0  0  0  0  0  0
    3.8451    1.2198   -0.2176 C   0  0  0  0  0  0  0  0  0  0  0  0
    2.5634    0.9011    0.2130 C   0  0  0  0  0  0  0  0  0  0  0  0
    2.2100   -0.4433    0.2078 C   0  0  0  0  0  0  0  0  0  0  0  0
    0.8221   -0.8820    0.1298 C   0  0  0  0  0  0  0  0  0  0  0  0
    0.0272   -0.6779   -0.8880 C   0  0  0  0  0  0  0  0  0  0  0  0
   -1.4300   -0.7126   -0.7110 C   0  0  0  0  0  0  0  0  0  0  0  0
   -2.2972   -0.2227   -1.6759 C   0  0  0  0  0  0  0  0  0  0  0  0
   -3.4242    0.5092   -1.3286 C   0  0  0  0  0  0  0  0  0  0  0  0
   -4.4126    0.8374   -2.2613 O   0  0  0  0  0  0  0  0  0  0  0  0
   -5.3996   -0.1396   -2.5825 C   0  0  0  0  0  0  0  0  0  0  0  0
   -3.8355    0.4815   -0.0036 C   0  0  0  0  0  0  0  0  0  0  0  0
   -4.6156    1.5094    0.4775 O   0  0  0  0  0  0  0  0  0  0  0  0
   -4.0646    2.5627    1.2487 C   0  0  0  0  0  0  0  0  0  0  0  0
   -3.1674   -0.3158    0.8987 C   0  0  0  0  0  0  0  0  0  0  0  0
   -3.7034   -0.5856    2.1399 O   0  0  0  0  0  0  0  0  0  0  0  0
   -4.2019   -1.9026    2.3533 C   0  0  0  0  0  0  0  0  0  0  0  0
   -2.0019   -0.9737    0.5241 C   0  0  0  0  0  0  0  0  0  0  0  0
    3.2505   -1.3099    0.5239 C   0  0  0  0  0  0  0  0  0  0  0  0
    4.4818   -1.0254   -0.0555 C   0  0  0  0  0  0  0  0  0  0  0  0
  1  2  1  0  0  0  0
  2  3  1  0  0  0  0
  3  4  1  0  0  0  0
  4  5  2  0  0  0  0
  5  6  1  0  0  0  0
  6  7  2  0  0  0  0
  7  8  1  0  0  0  0
  7 22  1  0  0  0  0
  8  9  2  0  0  0  0
  9 10  1  0  0  0  0
 10 11  2  0  0  0  0
 11 12  1  0  0  0  0
 12 13  1  0  0  0  0
 12 15  2  0  0  0  0
 13 14  1  0  0  0  0
 15 16  1  0  0  0  0
 15 18  1  0  0  0  0
 16 17  1  0  0  0  0
 18 19  1  0  0  0  0
 18 21  2  0  0  0  0
 19 20  1  0  0  0  0
 21 10  1  0  0  0  0
 22 23  2  0  0  0  0
 23  4  1  0  0  0  0
M  END
>  <zinc_id>
ZINC000001622337

>  <smiles>
CCOc1ccc(/C=C/c2cc(OC)c(OC)c(OC)c2)cc1

$$$$
