
 OpenBabel07162211283D

 24 25  0  0  0  0  0  0  0  0999 V2000
    7.7198    0.5024    1.0206 C   0  0  0  0  0  0  0  0  0  0  0  0
    7.1923    1.6189    0.1592 C   0  0  0  0  0  0  0  0  0  0  0  0
    6.2459    1.1113   -0.9187 C   0  0  0  0  0  0  0  0  0  0  0  0
    4.9606    1.0619   -0.3431 O   0  0  0  0  0  0  0  0  0  0  0  0
    4.2219   -0.1143   -0.2181 C   0  0  0  0  0  0  0  0  0  0  0  0
    3.2293   -0.4307   -1.1376 C   0  0  0  0  0  0  0  0  0  0  0  0
    2.1391   -1.2091   -0.7661 C   0  0  0  0  0  0  0  0  0  0  0  0
    1.8803   -1.4273    0.5821 C   0  0  0  0  0  0  0  0  0  0  0  0
    0.4870   -1.5106    1.0227 C   0  0  0  0  0  0  0  0  0  0  0  0
   -0.2836   -0.4721    1.2414 C   0  0  0  0  0  0  0  0  0  0  0  0
   -1.6709   -0.3719    0.7735 C   0  0  0  0  0  0  0  0  0  0  0  0
   -1.8758   -0.1759   -0.5876 C   0  0  0  0  0  0  0  0  0  0  0  0
   -3.1338   -0.2120   -1.1434 C   0  0  0  0  0  0  0  0  0  0  0  0
   -3.2201    0.0516   -2.5132 O   0  0  0  0  0  0  0  0  0  0  0  0
   -2.7066    1.3179   -2.9183 C   0  0  0  0  0  0  0  0  0  0  0  0
   -4.1796    0.1471   -0.3033 C   0  0  0  0  0  0  0  0  0  0  0  0
   -5.4624   -0.1036   -0.7981 O   0  0  0  0  0  0  0  0  0  0  0  0
   -5.9340   -1.4409   -0.6895 C   0  0  0  0  0  0  0  0  0  0  0  0
   -3.9482    0.3303    1.0527 C   0  0  0  0  0  0  0  0  0  0  0  0
   -4.9415    1.0180    1.7463 O   0  0  0  0  0  0  0  0  0  0  0  0
   -5.1272    2.3739    1.3718 C   0  0  0  0  0  0  0  0  0  0  0  0
   -2.6977    0.0730    1.5976 C   0  0  0  0  0  0  0  0  0  0  0  0
    2.9490   -1.3322    1.4288 C   0  0  0  0  0  0  0  0  0  0  0  0
    4.1563   -0.8058    0.9846 C   0  0  0  0  0  0  0  0  0  0  0  0
  1  2  1  0  0  0  0
  2  3  1  0  0  0  0
  3  4  1  0  0  0  0
  4  5  1  0  0  0  0
  5  6  2  0  0  0  0
  6  7  1  0  0  0  0
  7  8  2  0  0  0  0
  8  9  1  0  0  0  0
  8 23  1  0  0  0  0
  9 10  2  0  0  0  0
 10 11  1  0  0  0  0
 11 12  2  0  0  0  0
 12 13  1  0  0  0  0
 13 14  1  0  0  0  0
 13 16  2  0  0  0  0
 14 15  1  0  0  0  0
 16 17  1  0  0  0  0
 16 19  1  0  0  0  0
 17 18  1  0  0  0  0
 19 20  1  0  0  0  0
 19 22  2  0  0  0  0
 20 21  1  0  0  0  0
 22 11  1  0  0  0  0
 23 24  2  0  0  0  0
 24  5  1  0  0  0  0
M  END
>  <zinc_id>
ZINC000001625549

>  <smiles>
CCCOc1ccc(/C=C/c2cc(OC)c(OC)c(OC)c2)cc1

$$$$
