
 OpenBabel07162211283D

 17 18  0  0  0  0  0  0  0  0999 V2000
    5.3055    1.4793    1.1470 O   0  0  0  0  0  0  0  0  0  0  0  0
    4.1423    0.7583    0.9113 C   0  0  0  0  0  0  0  0  0  0  0  0
    3.1448    1.3811    0.1724 C   0  0  0  0  0  0  0  0  0  0  0  0
    2.2708    0.6420   -0.6142 C   0  0  0  0  0  0  0  0  0  0  0  0
    1.9733   -0.6381   -0.1616 C   0  0  0  0  0  0  0  0  0  0  0  0
    0.6595   -1.2269   -0.4466 C   0  0  0  0  0  0  0  0  0  0  0  0
   -0.2870   -1.3922    0.4438 C   0  0  0  0  0  0  0  0  0  0  0  0
   -1.6224   -0.7870    0.3392 C   0  0  0  0  0  0  0  0  0  0  0  0
   -2.6286   -1.3937   -0.4019 C   0  0  0  0  0  0  0  0  0  0  0  0
   -3.7509   -0.6376   -0.7110 C   0  0  0  0  0  0  0  0  0  0  0  0
   -4.9143   -1.2293   -1.2100 O   0  0  0  0  0  0  0  0  0  0  0  0
   -3.8874    0.6738   -0.2775 C   0  0  0  0  0  0  0  0  0  0  0  0
   -2.8099    1.2530    0.3391 C   0  0  0  0  0  0  0  0  0  0  0  0
   -2.7644    2.6413    0.4584 O   0  0  0  0  0  0  0  0  0  0  0  0
   -1.9253    0.4109    0.9762 C   0  0  0  0  0  0  0  0  0  0  0  0
    2.9755   -1.3045    0.4876 C   0  0  0  0  0  0  0  0  0  0  0  0
    4.1185   -0.6306    0.8984 C   0  0  0  0  0  0  0  0  0  0  0  0
  1  2  1  0  0  0  0
  2  3  2  0  0  0  0
  3  4  1  0  0  0  0
  4  5  2  0  0  0  0
  5  6  1  0  0  0  0
  5 16  1  0  0  0  0
  6  7  2  0  0  0  0
  7  8  1  0  0  0  0
  8  9  2  0  0  0  0
  9 10  1  0  0  0  0
 10 11  1  0  0  0  0
 10 12  2  0  0  0  0
 12 13  1  0  0  0  0
 13 14  1  0  0  0  0
 13 15  2  0  0  0  0
 15  8  1  0  0  0  0
 16 17  2  0  0  0  0
 17  2  1  0  0  0  0
M  END
>  <zinc_id>
ZINC000000006787

>  <smiles>
Oc1ccc(/C=C/c2cc(O)cc(O)c2)cc1

$$$$
