
 OpenBabel07162211283D

 27 28  0  0  0  0  0  0  0  0999 V2000
    3.4282   -0.2793    2.5448 C   0  0  0  0  0  0  0  0  0  0  0  0
    3.9538    0.6742    1.6237 O   0  0  0  0  0  0  0  0  0  0  0  0
    3.3343    0.8084    0.3767 C   0  0  0  0  0  0  0  0  0  0  0  0
    2.2614    1.6786    0.2249 C   0  0  0  0  0  0  0  0  0  0  0  0
    1.2327    1.3655   -0.6560 C   0  0  0  0  0  0  0  0  0  0  0  0
    1.1410    0.0943   -1.2115 C   0  0  0  0  0  0  0  0  0  0  0  0
   -0.1424   -0.6090   -1.3306 C   0  0  0  0  0  0  0  0  0  0  0  0
   -0.7097   -1.2567   -0.3367 C   0  0  0  0  0  0  0  0  0  0  0  0
   -2.1060   -1.0452    0.0696 C   0  0  0  0  0  0  0  0  0  0  0  0
   -2.4648   -0.0249    0.9425 C   0  0  0  0  0  0  0  0  0  0  0  0
   -3.7037    0.5998    0.8729 C   0  0  0  0  0  0  0  0  0  0  0  0
   -3.8656    1.9592    1.1599 O   0  0  0  0  0  0  0  0  0  0  0  0
   -3.4515    2.8534    0.1314 C   0  0  0  0  0  0  0  0  0  0  0  0
   -4.7316   -0.0253    0.2109 C   0  0  0  0  0  0  0  0  0  0  0  0
   -6.0336    0.2324    0.6412 O   0  0  0  0  0  0  0  0  0  0  0  0
   -6.5042   -0.3419    1.8586 C   0  0  0  0  0  0  0  0  0  0  0  0
   -4.4673   -1.2130   -0.4320 C   0  0  0  0  0  0  0  0  0  0  0  0
   -5.4667   -1.7850   -1.2044 O   0  0  0  0  0  0  0  0  0  0  0  0
   -6.1652   -0.9355   -2.0979 C   0  0  0  0  0  0  0  0  0  0  0  0
   -3.1608   -1.6559   -0.5967 C   0  0  0  0  0  0  0  0  0  0  0  0
    2.3558   -0.5613   -1.3739 C   0  0  0  0  0  0  0  0  0  0  0  0
    3.4451   -0.1696   -0.6049 C   0  0  0  0  0  0  0  0  0  0  0  0
    4.6758   -0.8183   -0.6720 O   0  0  0  0  0  0  0  0  0  0  0  0
    5.8119   -0.0362   -1.0280 C   0  0  0  0  0  0  0  0  0  0  0  0
    6.7205    0.1499    0.1410 C   0  0  0  0  0  0  0  0  0  0  0  0
    7.1353    1.3086    0.4288 O   0  0  0  0  0  0  0  0  0  0  0  0
    7.4772   -0.9673    0.5023 O   0  0  0  0  0  0  0  0  0  0  0  0
  1  2  1  0  0  0  0
  2  3  1  0  0  0  0
  3  4  2  0  0  0  0
  4  5  1  0  0  0  0
  5  6  2  0  0  0  0
  6  7  1  0  0  0  0
  6 21  1  0  0  0  0
  7  8  2  0  0  0  0
  8  9  1  0  0  0  0
  9 10  2  0  0  0  0
 10 11  1  0  0  0  0
 11 12  1  0  0  0  0
 11 14  2  0  0  0  0
 12 13  1  0  0  0  0
 14 15  1  0  0  0  0
 14 17  1  0  0  0  0
 15 16  1  0  0  0  0
 17 18  1  0  0  0  0
 17 20  2  0  0  0  0
 18 19  1  0  0  0  0
 20  9  1  0  0  0  0
 21 22  2  0  0  0  0
 22 23  1  0  0  0  0
 22  3  1  0  0  0  0
 23 24  1  0  0  0  0
 24 25  1  0  0  0  0
 25 26  2  0  0  0  0
 25 27  1  0  0  0  0
M  END
>  <zinc_id>
ZINC000001628982

>  <smiles>
COc1ccc(/C=C/c2cc(OC)c(OC)c(OC)c2)cc1OCC(=O)O

$$$$
