
 OpenBabel07162211283D

 24 26  0  0  0  0  0  0  0  0999 V2000
   -2.3975    3.4658   -1.3863 C   0  0  0  0  0  0  0  0  0  0  0  0
   -3.2437    2.4173   -0.9890 O   0  0  0  0  0  0  0  0  0  0  0  0
   -2.8002    1.2996   -0.2750 C   0  0  0  0  0  0  0  0  0  0  0  0
   -1.5556    0.7365   -0.4827 C   0  0  0  0  0  0  0  0  0  0  0  0
   -1.3067   -0.5556   -0.0377 C   0  0  0  0  0  0  0  0  0  0  0  0
    0.0251   -1.0605    0.2256 C   0  0  0  0  0  0  0  0  0  0  0  0
    0.9745   -1.1896   -0.6712 C   0  0  0  0  0  0  0  0  0  0  0  0
    0.6679   -0.7180   -2.0572 C   0  0  0  0  0  0  0  0  0  0  0  0
    2.3849   -1.2950   -0.2764 C   0  0  0  0  0  0  0  0  0  0  0  0
    2.7589   -1.3596    1.0606 C   0  0  0  0  0  0  0  0  0  0  0  0
    3.8721   -0.6663    1.5203 C   0  0  0  0  0  0  0  0  0  0  0  0
    4.7163   -0.0270    0.6212 C   0  0  0  0  0  0  0  0  0  0  0  0
    4.6010   -0.4352   -0.7012 C   0  0  0  0  0  0  0  0  0  0  0  0
    3.4157   -0.9988   -1.1586 C   0  0  0  0  0  0  0  0  0  0  0  0
    5.6002    0.2591   -1.3717 O   0  0  0  0  0  0  0  0  0  0  0  0
    6.0516    1.3580   -0.5949 C   0  0  0  0  0  0  0  0  0  0  0  0
    5.4750    1.1418    0.6890 O   0  0  0  0  0  0  0  0  0  0  0  0
   -2.4074   -1.3592    0.2356 C   0  0  0  0  0  0  0  0  0  0  0  0
   -3.6000   -0.7903    0.6498 C   0  0  0  0  0  0  0  0  0  0  0  0
   -4.6904   -1.5596    1.0625 O   0  0  0  0  0  0  0  0  0  0  0  0
   -5.5121   -2.1776    0.0746 C   0  0  0  0  0  0  0  0  0  0  0  0
   -3.7707    0.5555    0.3818 C   0  0  0  0  0  0  0  0  0  0  0  0
   -4.7598    1.2603    1.0750 O   0  0  0  0  0  0  0  0  0  0  0  0
   -4.4990    1.6984    2.4059 C   0  0  0  0  0  0  0  0  0  0  0  0
  1  2  1  0  0  0  0
  2  3  1  0  0  0  0
  3  4  2  0  0  0  0
  4  5  1  0  0  0  0
  5  6  1  0  0  0  0
  5 18  2  0  0  0  0
  6  7  2  0  0  0  0
  7  8  1  0  0  0  0
  7  9  1  0  0  0  0
  9 10  2  0  0  0  0
 10 11  1  0  0  0  0
 11 12  2  0  0  0  0
 12 13  1  0  0  0  0
 13 14  2  0  0  0  0
 13 15  1  0  0  0  0
 14  9  1  0  0  0  0
 15 16  1  0  0  0  0
 16 17  1  0  0  0  0
 17 12  1  0  0  0  0
 18 19  1  0  0  0  0
 19 20  1  0  0  0  0
 19 22  2  0  0  0  0
 20 21  1  0  0  0  0
 22 23  1  0  0  0  0
 22  3  1  0  0  0  0
 23 24  1  0  0  0  0
M  END
>  <zinc_id>
ZINC000001630897

>  <smiles>
COc1cc(/C=C(\C)c2ccc3c(c2)OCO3)cc(OC)c1OC

$$$$
