
 OpenBabel07162211283D

 25 26  0  0  0  0  0  0  0  0999 V2000
    6.3813   -1.4413    2.3521 C   0  0  0  0  0  0  0  0  0  0  0  0
    5.2515   -0.6214    2.5080 O   0  0  0  0  0  0  0  0  0  0  0  0
    4.7760    0.1592    1.4486 C   0  0  0  0  0  0  0  0  0  0  0  0
    4.7851   -0.3068    0.1403 C   0  0  0  0  0  0  0  0  0  0  0  0
    3.7097   -0.0986   -0.7131 C   0  0  0  0  0  0  0  0  0  0  0  0
    2.6163    0.6515   -0.2958 C   0  0  0  0  0  0  0  0  0  0  0  0
    1.2436    0.2687   -0.6532 C   0  0  0  0  0  0  0  0  0  0  0  0
    0.3247    1.1873   -0.9543 C   0  0  0  0  0  0  0  0  0  0  0  0
   -1.0995    0.8561   -1.0369 C   0  0  0  0  0  0  0  0  0  0  0  0
   -1.4819   -0.4253   -1.3869 C   0  0  0  0  0  0  0  0  0  0  0  0
   -2.7037   -0.9671   -1.0038 C   0  0  0  0  0  0  0  0  0  0  0  0
   -2.8550   -2.3567   -0.9661 O   0  0  0  0  0  0  0  0  0  0  0  0
   -2.1284   -3.0769   -1.9552 C   0  0  0  0  0  0  0  0  0  0  0  0
   -3.5787   -0.1394   -0.3229 C   0  0  0  0  0  0  0  0  0  0  0  0
   -4.5410   -0.7015    0.4997 O   0  0  0  0  0  0  0  0  0  0  0  0
   -4.3873   -0.6441    1.9061 C   0  0  0  0  0  0  0  0  0  0  0  0
   -3.3950    1.2257   -0.4478 C   0  0  0  0  0  0  0  0  0  0  0  0
   -4.3961    2.0495    0.0219 O   0  0  0  0  0  0  0  0  0  0  0  0
   -5.6866    1.9849   -0.5623 C   0  0  0  0  0  0  0  0  0  0  0  0
   -2.0951    1.6925   -0.5964 C   0  0  0  0  0  0  0  0  0  0  0  0
    0.7233   -1.0294   -0.3407 N   0  3  0  0  0  0  0  0  0  0  0  0
    0.4664   -1.2554    0.8688 O   0  0  0  0  0  0  0  0  0  0  0  0
    1.3284   -2.0745   -1.0182 O   0  5  0  0  0  0  0  0  0  0  0  0
    2.8453    1.4526    0.8165 C   0  0  0  0  0  0  0  0  0  0  0  0
    3.8968    1.2083    1.6916 C   0  0  0  0  0  0  0  0  0  0  0  0
  1  2  1  0  0  0  0
  2  3  1  0  0  0  0
  3  4  2  0  0  0  0
  4  5  1  0  0  0  0
  5  6  2  0  0  0  0
  6  7  1  0  0  0  0
  6 24  1  0  0  0  0
  7  8  2  0  0  0  0
  7 21  1  0  0  0  0
  8  9  1  0  0  0  0
  9 10  2  0  0  0  0
 10 11  1  0  0  0  0
 11 12  1  0  0  0  0
 11 14  2  0  0  0  0
 12 13  1  0  0  0  0
 14 15  1  0  0  0  0
 14 17  1  0  0  0  0
 15 16  1  0  0  0  0
 17 18  1  0  0  0  0
 17 20  2  0  0  0  0
 18 19  1  0  0  0  0
 20  9  1  0  0  0  0
 21 22  2  0  0  0  0
 21 23  1  0  0  0  0
 24 25  2  0  0  0  0
 25  3  1  0  0  0  0
M  CHG  2  21   1  23  -1
M  END
>  <zinc_id>
ZINC000001669556

>  <smiles>
COc1ccc(/C(=C/c2cc(OC)c(OC)c(OC)c2)[N+](=O)[O-])cc1

$$$$
