
 OpenBabel07162211283D

 27 29  0  0  0  0  0  0  0  0999 V2000
    7.1194    0.5678   -0.3065 C   0  0  0  0  0  0  0  0  0  0  0  0
    6.3224   -0.6080   -0.4267 O   0  0  0  0  0  0  0  0  0  0  0  0
    4.9395   -0.4110   -0.4145 C   0  0  0  0  0  0  0  0  0  0  0  0
    4.2529   -0.1227   -1.5870 C   0  0  0  0  0  0  0  0  0  0  0  0
    2.8653   -0.0473   -1.5570 C   0  0  0  0  0  0  0  0  0  0  0  0
    2.2376    0.2712   -0.3599 C   0  0  0  0  0  0  0  0  0  0  0  0
    3.0360    0.2944    0.7756 C   0  0  0  0  0  0  0  0  0  0  0  0
    4.2883   -0.3084    0.7859 C   0  0  0  0  0  0  0  0  0  0  0  0
    5.0017   -0.3197    1.9645 O   0  0  0  0  0  0  0  0  0  0  0  0
    4.4069   -0.3717    3.2360 C   0  0  0  0  0  0  0  0  0  0  0  0
    0.8046    0.0464   -0.5403 C   0  0  0  0  0  0  0  0  0  0  0  0
   -0.0953   -0.3507    0.3580 C   0  0  0  0  0  0  0  0  0  0  0  0
   -1.5260   -0.1969    0.0614 C   0  0  0  0  0  0  0  0  0  0  0  0
   -2.2442   -1.3679   -0.1036 C   0  0  0  0  0  0  0  0  0  0  0  0
   -3.6138   -1.2768   -0.1042 C   0  0  0  0  0  0  0  0  0  0  0  0
   -4.4382   -2.1875   -0.7737 O   0  0  0  0  0  0  0  0  0  0  0  0
   -4.9583   -1.7380   -2.0202 C   0  0  0  0  0  0  0  0  0  0  0  0
   -4.1917   -0.3156    0.6956 C   0  0  0  0  0  0  0  0  0  0  0  0
   -5.4487   -0.4675    1.2350 O   0  0  0  0  0  0  0  0  0  0  0  0
   -5.5326   -0.7067    2.6366 C   0  0  0  0  0  0  0  0  0  0  0  0
   -3.5433    0.9112    0.7711 C   0  0  0  0  0  0  0  0  0  0  0  0
   -4.1215    2.0245    1.3555 O   0  0  0  0  0  0  0  0  0  0  0  0
   -5.3484    2.5690    0.9176 C   0  0  0  0  0  0  0  0  0  0  0  0
   -2.1847    0.9490    0.4910 C   0  0  0  0  0  0  0  0  0  0  0  0
    0.6009    0.0441   -1.9926 C   0  0  0  0  0  0  0  0  0  0  0  0
   -0.5093   -0.2199   -2.5226 O   0  0  0  0  0  0  0  0  0  0  0  0
    1.8805   -0.2289   -2.5751 N   0  0  0  0  0  0  0  0  0  0  0  0
  1  2  1  0  0  0  0
  2  3  1  0  0  0  0
  3  4  2  0  0  0  0
  4  5  1  0  0  0  0
  5  6  2  0  0  0  0
  6  7  1  0  0  0  0
  6 11  1  0  0  0  0
  7  8  2  0  0  0  0
  8  9  1  0  0  0  0
  8  3  1  0  0  0  0
  9 10  1  0  0  0  0
 11 12  2  0  0  0  0
 11 25  1  0  0  0  0
 12 13  1  0  0  0  0
 13 14  2  0  0  0  0
 14 15  1  0  0  0  0
 15 16  1  0  0  0  0
 15 18  2  0  0  0  0
 16 17  1  0  0  0  0
 18 19  1  0  0  0  0
 18 21  1  0  0  0  0
 19 20  1  0  0  0  0
 21 22  1  0  0  0  0
 21 24  2  0  0  0  0
 22 23  1  0  0  0  0
 24 13  1  0  0  0  0
 25 26  2  0  0  0  0
 25 27  1  0  0  0  0
 27  5  1  0  0  0  0
M  END
>  <zinc_id>
ZINC000002150677

>  <smiles>
COc1cc2c(cc1OC)/C(=C/c1cc(OC)c(OC)c(OC)c1)C(=O)N2

$$$$
