
 OpenBabel07162211283D

 22 23  0  0  0  0  0  0  0  0999 V2000
    6.8604    0.0483   -0.8781 C   0  0  0  0  0  0  0  0  0  0  0  0
    6.1208   -0.5618    0.1653 O   0  0  0  0  0  0  0  0  0  0  0  0
    4.7309   -0.4604    0.2248 C   0  0  0  0  0  0  0  0  0  0  0  0
    4.0840   -1.1912    1.2134 C   0  0  0  0  0  0  0  0  0  0  0  0
    2.7062   -1.1010    1.3517 C   0  0  0  0  0  0  0  0  0  0  0  0
    2.0522   -0.2717    0.4503 C   0  0  0  0  0  0  0  0  0  0  0  0
    0.6068   -0.2648    0.4634 C   0  0  0  0  0  0  0  0  0  0  0  0
   -0.1556   -0.6972   -0.5175 C   0  0  0  0  0  0  0  0  0  0  0  0
   -1.6099   -0.5516   -0.3784 C   0  0  0  0  0  0  0  0  0  0  0  0
   -2.4026   -0.3716   -1.5050 C   0  0  0  0  0  0  0  0  0  0  0  0
   -3.7801   -0.4072   -1.3269 C   0  0  0  0  0  0  0  0  0  0  0  0
   -4.5517   -0.4677   -2.4654 O   0  0  0  0  0  0  0  0  0  0  0  0
   -5.8466   -1.0043   -2.5406 C   0  0  0  0  0  0  0  0  0  0  0  0
   -4.3384   -0.1283   -0.0861 C   0  0  0  0  0  0  0  0  0  0  0  0
   -3.5076    0.1325    0.9746 C   0  0  0  0  0  0  0  0  0  0  0  0
   -3.8553    0.9760    2.0335 O   0  0  0  0  0  0  0  0  0  0  0  0
   -5.2016    1.2950    2.2766 C   0  0  0  0  0  0  0  0  0  0  0  0
   -2.1687   -0.1152    0.8148 C   0  0  0  0  0  0  0  0  0  0  0  0
    2.7658    0.8412    0.0242 C   0  0  0  0  0  0  0  0  0  0  0  0
    2.0927    1.9837   -0.4178 O   0  0  0  0  0  0  0  0  0  0  0  0
    1.3315    2.7465    0.5161 C   0  0  0  0  0  0  0  0  0  0  0  0
    4.0668    0.5918   -0.3929 C   0  0  0  0  0  0  0  0  0  0  0  0
  1  2  1  0  0  0  0
  2  3  1  0  0  0  0
  3  4  2  0  0  0  0
  4  5  1  0  0  0  0
  5  6  2  0  0  0  0
  6  7  1  0  0  0  0
  6 19  1  0  0  0  0
  7  8  2  0  0  0  0
  8  9  1  0  0  0  0
  9 10  2  0  0  0  0
 10 11  1  0  0  0  0
 11 12  1  0  0  0  0
 11 14  2  0  0  0  0
 12 13  1  0  0  0  0
 14 15  1  0  0  0  0
 15 16  1  0  0  0  0
 15 18  2  0  0  0  0
 16 17  1  0  0  0  0
 18  9  1  0  0  0  0
 19 20  1  0  0  0  0
 19 22  2  0  0  0  0
 20 21  1  0  0  0  0
 22  3  1  0  0  0  0
M  END
>  <zinc_id>
ZINC000003875137

>  <smiles>
COc1cc(/C=C/c2ccc(OC)cc2OC)cc(OC)c1

$$$$
