
 OpenBabel07162211283D

 26 27  0  0  0  0  0  0  0  0999 V2000
    7.9904    2.5434   -0.1356 C   0  0  0  0  0  0  0  0  0  0  0  0
    7.0756    1.4646    0.2854 C   0  0  0  0  0  0  0  0  0  0  0  0
    7.5473    0.3282    0.4964 O   0  0  0  0  0  0  0  0  0  0  0  0
    5.7182    1.5901    0.0965 O   0  0  0  0  0  0  0  0  0  0  0  0
    4.8412    0.5033    0.0328 C   0  0  0  0  0  0  0  0  0  0  0  0
    4.6063   -0.3052    1.1393 C   0  0  0  0  0  0  0  0  0  0  0  0
    3.3135   -0.6783    1.4878 C   0  0  0  0  0  0  0  0  0  0  0  0
    2.2611   -0.4489    0.6110 C   0  0  0  0  0  0  0  0  0  0  0  0
    0.8626   -0.5611    1.0151 C   0  0  0  0  0  0  0  0  0  0  0  0
   -0.0473    0.3651    0.7364 C   0  0  0  0  0  0  0  0  0  0  0  0
   -1.4111    0.0042    0.3705 C   0  0  0  0  0  0  0  0  0  0  0  0
   -2.3998    0.9714    0.3721 C   0  0  0  0  0  0  0  0  0  0  0  0
   -3.7235    0.6136    0.1506 C   0  0  0  0  0  0  0  0  0  0  0  0
   -4.7738    1.4662    0.4692 O   0  0  0  0  0  0  0  0  0  0  0  0
   -4.5913    2.8357    0.6498 C   0  0  0  0  0  0  0  0  0  0  0  0
   -5.5943    3.8350    0.1770 C   0  0  0  0  0  0  0  0  0  0  0  0
   -3.4806    3.1823    1.1181 O   0  0  0  0  0  0  0  0  0  0  0  0
   -4.0403   -0.6433   -0.3486 C   0  0  0  0  0  0  0  0  0  0  0  0
   -3.0529   -1.6069   -0.4114 C   0  0  0  0  0  0  0  0  0  0  0  0
   -3.3770   -2.9613   -0.2948 O   0  0  0  0  0  0  0  0  0  0  0  0
   -3.8679   -3.6726   -1.3929 C   0  0  0  0  0  0  0  0  0  0  0  0
   -4.7304   -4.8634   -1.2280 C   0  0  0  0  0  0  0  0  0  0  0  0
   -3.7983   -3.1736   -2.5526 O   0  0  0  0  0  0  0  0  0  0  0  0
   -1.7395   -1.1948   -0.2429 C   0  0  0  0  0  0  0  0  0  0  0  0
    2.6376   -0.1902   -0.7021 C   0  0  0  0  0  0  0  0  0  0  0  0
    3.7739    0.5963   -0.8531 C   0  0  0  0  0  0  0  0  0  0  0  0
  1  2  1  0  0  0  0
  2  3  2  0  0  0  0
  2  4  1  0  0  0  0
  4  5  1  0  0  0  0
  5  6  2  0  0  0  0
  6  7  1  0  0  0  0
  7  8  2  0  0  0  0
  8  9  1  0  0  0  0
  8 25  1  0  0  0  0
  9 10  2  0  0  0  0
 10 11  1  0  0  0  0
 11 12  2  0  0  0  0
 12 13  1  0  0  0  0
 13 14  1  0  0  0  0
 13 18  2  0  0  0  0
 14 15  1  0  0  0  0
 15 16  1  0  0  0  0
 15 17  2  0  0  0  0
 18 19  1  0  0  0  0
 19 20  1  0  0  0  0
 19 24  2  0  0  0  0
 20 21  1  0  0  0  0
 21 22  1  0  0  0  0
 21 23  2  0  0  0  0
 24 11  1  0  0  0  0
 25 26  2  0  0  0  0
 26  5  1  0  0  0  0
M  END
>  <zinc_id>
ZINC000003978778

>  <smiles>
CC(=O)Oc1ccc(/C=C/c2cc(OC(C)=O)cc(OC(C)=O)c2)cc1

$$$$
