
 OpenBabel07162211283D

 18 19  0  0  0  0  0  0  0  0999 V2000
   -5.0462    2.2476    0.1904 C   0  0  0  0  0  0  0  0  0  0  0  0
   -5.1210    0.8309    0.3414 O   0  0  0  0  0  0  0  0  0  0  0  0
   -4.1435    0.0243   -0.2281 C   0  0  0  0  0  0  0  0  0  0  0  0
   -3.1729    0.5186   -1.0902 C   0  0  0  0  0  0  0  0  0  0  0  0
   -1.9328   -0.0863   -1.1354 C   0  0  0  0  0  0  0  0  0  0  0  0
   -1.5790   -1.1260   -0.2831 C   0  0  0  0  0  0  0  0  0  0  0  0
   -0.2399   -1.1866    0.3190 C   0  0  0  0  0  0  0  0  0  0  0  0
    0.8471   -1.4642   -0.3638 C   0  0  0  0  0  0  0  0  0  0  0  0
    2.0929   -0.6949   -0.2498 C   0  0  0  0  0  0  0  0  0  0  0  0
    3.0054   -0.9102    0.7681 C   0  0  0  0  0  0  0  0  0  0  0  0
    4.1956   -0.1992    0.6998 C   0  0  0  0  0  0  0  0  0  0  0  0
    5.1730   -0.5319    1.6179 O   0  0  0  0  0  0  0  0  0  0  0  0
    4.2611    0.9687   -0.0423 C   0  0  0  0  0  0  0  0  0  0  0  0
    3.1544    1.4237   -0.7496 C   0  0  0  0  0  0  0  0  0  0  0  0
    2.8907    2.7891   -0.9055 O   0  0  0  0  0  0  0  0  0  0  0  0
    2.1894    0.4605   -1.0162 C   0  0  0  0  0  0  0  0  0  0  0  0
   -2.6485   -1.8048    0.2881 C   0  0  0  0  0  0  0  0  0  0  0  0
   -3.9259   -1.2591    0.2470 C   0  0  0  0  0  0  0  0  0  0  0  0
  1  2  1  0  0  0  0
  2  3  1  0  0  0  0
  3  4  2  0  0  0  0
  4  5  1  0  0  0  0
  5  6  2  0  0  0  0
  6  7  1  0  0  0  0
  6 17  1  0  0  0  0
  7  8  2  0  0  0  0
  8  9  1  0  0  0  0
  9 10  2  0  0  0  0
 10 11  1  0  0  0  0
 11 12  1  0  0  0  0
 11 13  2  0  0  0  0
 13 14  1  0  0  0  0
 14 15  1  0  0  0  0
 14 16  2  0  0  0  0
 16  9  1  0  0  0  0
 17 18  2  0  0  0  0
 18  3  1  0  0  0  0
M  END
>  <zinc_id>
ZINC000003978779

>  <smiles>
COc1ccc(/C=C/c2cc(O)cc(O)c2)cc1

$$$$
