
 OpenBabel07162211283D

 28 30  0  0  0  0  0  0  0  0999 V2000
   -4.6447   -3.1927   -0.0709 O   0  0  0  0  0  0  0  0  0  0  0  0
   -5.2089   -2.4584   -0.5503 C   0  0  0  0  0  0  0  0  0  0  0  0
   -5.1011   -1.1745    0.4634 C   0  0  1  0  0  0  0  0  0  0  0  0
   -3.5963   -1.1870    0.3615 O   0  0  0  0  0  0  0  0  0  0  0  0
   -3.4208   -0.0622    1.3816 C   0  0  1  0  0  0  0  0  0  0  0  0
   -1.9153   -0.3385    1.4650 O   0  0  0  0  0  0  0  0  0  0  0  0
   -0.9630    0.1456    0.7109 C   0  0  0  0  0  0  0  0  0  0  0  0
   -0.8909    0.6686   -0.5554 C   0  0  0  0  0  0  0  0  0  0  0  0
    0.2149    1.2155   -1.1321 C   0  0  0  0  0  0  0  0  0  0  0  0
    0.2119    1.8168   -2.3706 O   0  0  0  0  0  0  0  0  0  0  0  0
    1.3525    1.2199   -0.3651 C   0  0  0  0  0  0  0  0  0  0  0  0
    1.3777    0.2095    0.6005 C   0  0  0  0  0  0  0  0  0  0  0  0
    2.6513   -0.2482    1.1687 C   0  0  0  0  0  0  0  0  0  0  0  0
    3.3336   -1.1036    0.4681 C   0  0  0  0  0  0  0  0  0  0  0  0
    4.7164   -0.7361    0.1686 C   0  0  0  0  0  0  0  0  0  0  0  0
    5.1114    0.5987    0.1259 C   0  0  0  0  0  0  0  0  0  0  0  0
    6.3775    0.9567    0.4728 C   0  0  0  0  0  0  0  0  0  0  0  0
    7.2709   -0.1020    0.5599 C   0  0  0  0  0  0  0  0  0  0  0  0
    8.5914    0.2155    0.7420 O   0  0  0  0  0  0  0  0  0  0  0  0
    6.9113   -1.4131    0.3323 C   0  0  0  0  0  0  0  0  0  0  0  0
    5.6147   -1.7266   -0.0499 C   0  0  0  0  0  0  0  0  0  0  0  0
    0.2751   -0.0161    1.3425 C   0  0  0  0  0  0  0  0  0  0  0  0
   -3.3013    1.0642    0.0793 C   0  0  2  0  0  0  0  0  0  0  0  0
   -3.0627    2.2074    1.0112 O   0  0  0  0  0  0  0  0  0  0  0  0
   -4.9863    1.2709    0.1755 C   0  0  1  0  0  0  0  0  0  0  0  0
   -4.9555    2.2020   -0.9993 O   0  0  0  0  0  0  0  0  0  0  0  0
   -5.2447   -0.0745   -0.8399 C   0  0  2  0  0  0  0  0  0  0  0  0
   -6.7194    0.0421   -0.6169 O   0  0  0  0  0  0  0  0  0  0  0  0
  1  2  1  0  0  0  0
  3  2  1  6  0  0  0
  3  4  1  0  0  0  0
  4  5  1  0  0  0  0
  5  6  1  6  0  0  0
  5 23  1  0  0  0  0
  6  7  1  0  0  0  0
  7  8  2  0  0  0  0
  8  9  1  0  0  0  0
  9 10  1  0  0  0  0
  9 11  2  0  0  0  0
 11 12  1  0  0  0  0
 12 13  1  0  0  0  0
 12 22  2  0  0  0  0
 13 14  2  0  0  0  0
 14 15  1  0  0  0  0
 15 16  2  0  0  0  0
 16 17  1  0  0  0  0
 17 18  2  0  0  0  0
 18 19  1  0  0  0  0
 18 20  1  0  0  0  0
 20 21  2  0  0  0  0
 21 15  1  0  0  0  0
 22  7  1  0  0  0  0
 23 24  1  1  0  0  0
 23 25  1  0  0  0  0
 25 26  1  6  0  0  0
 25 27  1  0  0  0  0
 27 28  1  1  0  0  0
 27  3  1  0  0  0  0
M  END
>  <zinc_id>
ZINC000004098633

>  <smiles>
OC[C@H]1O[C@@H](Oc2cc(O)cc(/C=C/c3ccc(O)cc3)c2)[C@H](O)[C@@H](O)[C@@H]1O

$$$$
