
 OpenBabel07162211283D

 21 22  0  0  0  0  0  0  0  0999 V2000
    4.3828    2.5206   -1.7010 C   0  0  0  0  0  0  0  0  0  0  0  0
    4.6702    1.3245   -0.9856 O   0  0  0  0  0  0  0  0  0  0  0  0
    3.6800    0.4101   -0.6304 C   0  0  0  0  0  0  0  0  0  0  0  0
    2.6950    0.0177   -1.5270 C   0  0  0  0  0  0  0  0  0  0  0  0
    1.4314   -0.3084   -1.0512 C   0  0  0  0  0  0  0  0  0  0  0  0
    0.3815   -0.4455   -2.0350 C   0  0  0  0  0  0  0  0  0  0  0  0
   -0.5271    0.5337   -1.9871 C   0  0  0  0  0  0  0  0  0  0  0  0
   -1.2865    0.4917   -0.7267 C   0  0  0  0  0  0  0  0  0  0  0  0
   -1.8798    1.6297   -0.1927 C   0  0  0  0  0  0  0  0  0  0  0  0
   -3.1603    1.5865    0.3453 C   0  0  0  0  0  0  0  0  0  0  0  0
   -3.8076    0.3734    0.5077 C   0  0  0  0  0  0  0  0  0  0  0  0
   -4.8597    0.2013    1.4127 O   0  0  0  0  0  0  0  0  0  0  0  0
   -6.1562    0.7038    1.1939 C   0  0  0  0  0  0  0  0  0  0  0  0
   -3.1608   -0.7979    0.1299 C   0  0  0  0  0  0  0  0  0  0  0  0
   -3.6566   -2.0567    0.4604 O   0  0  0  0  0  0  0  0  0  0  0  0
   -1.8609   -0.7034   -0.3074 C   0  0  0  0  0  0  0  0  0  0  0  0
    1.3683   -0.7548    0.2468 C   0  0  0  0  0  0  0  0  0  0  0  0
    2.4781   -0.8485    1.0521 C   0  0  0  0  0  0  0  0  0  0  0  0
    2.4244   -1.3729    2.3324 O   0  0  0  0  0  0  0  0  0  0  0  0
    3.2589   -2.3995    2.8044 C   0  0  0  0  0  0  0  0  0  0  0  0
    3.5851   -0.1055    0.6589 C   0  0  0  0  0  0  0  0  0  0  0  0
  1  2  1  0  0  0  0
  2  3  1  0  0  0  0
  3  4  2  0  0  0  0
  4  5  1  0  0  0  0
  5  6  1  0  0  0  0
  5 17  2  0  0  0  0
  6  7  2  0  0  0  0
  7  8  1  0  0  0  0
  8  9  2  0  0  0  0
  9 10  1  0  0  0  0
 10 11  2  0  0  0  0
 11 12  1  0  0  0  0
 11 14  1  0  0  0  0
 12 13  1  0  0  0  0
 14 15  1  0  0  0  0
 14 16  2  0  0  0  0
 16  8  1  0  0  0  0
 17 18  1  0  0  0  0
 18 19  1  0  0  0  0
 18 21  2  0  0  0  0
 19 20  1  0  0  0  0
 21  3  1  0  0  0  0
M  END
>  <zinc_id>
ZINC000004847334

>  <smiles>
COc1cc(/C=C\c2ccc(OC)c(O)c2)cc(OC)c1

$$$$
