
 OpenBabel07162211283D

 18 19  0  0  0  0  0  0  0  0999 V2000
   -3.8589   -0.0350   -2.4795 O   0  0  0  0  0  0  0  0  0  0  0  0
   -3.1407   -0.0310   -1.2799 C   0  0  0  0  0  0  0  0  0  0  0  0
   -3.3946    0.8746   -0.2725 C   0  0  0  0  0  0  0  0  0  0  0  0
   -2.9930    0.6166    1.0206 C   0  0  0  0  0  0  0  0  0  0  0  0
   -3.3205    1.4593    2.0814 O   0  0  0  0  0  0  0  0  0  0  0  0
   -2.0388   -0.3463    1.2158 C   0  0  0  0  0  0  0  0  0  0  0  0
   -1.4792   -0.9846    0.1142 C   0  0  0  0  0  0  0  0  0  0  0  0
   -0.5747   -2.0960    0.4416 C   0  0  0  0  0  0  0  0  0  0  0  0
    0.5696   -1.7210    1.0172 C   0  0  0  0  0  0  0  0  0  0  0  0
    1.3638   -0.7934    0.2008 C   0  0  0  0  0  0  0  0  0  0  0  0
    0.8884    0.4349   -0.2060 C   0  0  0  0  0  0  0  0  0  0  0  0
    1.8174    1.4395   -0.4455 C   0  0  0  0  0  0  0  0  0  0  0  0
    3.1798    1.2341   -0.2729 C   0  0  0  0  0  0  0  0  0  0  0  0
    3.9377    2.3755   -0.0327 O   0  0  0  0  0  0  0  0  0  0  0  0
    3.6505   -0.0461   -0.0795 C   0  0  0  0  0  0  0  0  0  0  0  0
    4.9993   -0.2129    0.1452 O   0  0  0  0  0  0  0  0  0  0  0  0
    2.7171   -1.0545    0.0209 C   0  0  0  0  0  0  0  0  0  0  0  0
   -2.3233   -1.1136   -0.9829 C   0  0  0  0  0  0  0  0  0  0  0  0
  1  2  1  0  0  0  0
  2  3  2  0  0  0  0
  3  4  1  0  0  0  0
  4  5  1  0  0  0  0
  4  6  2  0  0  0  0
  6  7  1  0  0  0  0
  7  8  1  0  0  0  0
  7 18  2  0  0  0  0
  8  9  2  0  0  0  0
  9 10  1  0  0  0  0
 10 11  2  0  0  0  0
 11 12  1  0  0  0  0
 12 13  2  0  0  0  0
 13 14  1  0  0  0  0
 13 15  1  0  0  0  0
 15 16  1  0  0  0  0
 15 17  2  0  0  0  0
 17 10  1  0  0  0  0
 18  2  1  0  0  0  0
M  END
>  <zinc_id>
ZINC000005552326

>  <smiles>
Oc1cc(O)cc(/C=C\c2ccc(O)c(O)c2)c1

$$$$
