
 OpenBabel07162211283D

 23 24  0  0  0  0  0  0  0  0999 V2000
    5.5568    1.8022    1.6673 C   0  0  0  0  0  0  0  0  0  0  0  0
    5.5660    0.5477    0.9895 O   0  0  0  0  0  0  0  0  0  0  0  0
    4.3595    0.1398    0.4130 C   0  0  0  0  0  0  0  0  0  0  0  0
    3.6958    0.9183   -0.5288 C   0  0  0  0  0  0  0  0  0  0  0  0
    2.5824    0.3676   -1.1524 C   0  0  0  0  0  0  0  0  0  0  0  0
    1.8136   -0.6163   -0.5413 C   0  0  0  0  0  0  0  0  0  0  0  0
    1.1209   -1.5228   -1.4682 C   0  0  0  0  0  0  0  0  0  0  0  0
    0.1380   -0.9549   -2.1679 C   0  0  0  0  0  0  0  0  0  0  0  0
   -0.9015   -0.3157   -1.3496 C   0  0  0  0  0  0  0  0  0  0  0  0
   -0.7348    0.0173   -0.0353 C   0  0  0  0  0  0  0  0  0  0  0  0
   -1.8315    0.2732    0.7747 C   0  0  0  0  0  0  0  0  0  0  0  0
   -1.7548    0.2285    2.1639 O   0  0  0  0  0  0  0  0  0  0  0  0
   -2.7584   -0.3599    2.9754 C   0  0  0  0  0  0  0  0  0  0  0  0
   -3.0773    0.4424    0.1843 C   0  0  0  0  0  0  0  0  0  0  0  0
   -4.0342    1.1525    0.8857 O   0  0  0  0  0  0  0  0  0  0  0  0
   -4.7096    2.2832    0.3710 C   0  0  0  0  0  0  0  0  0  0  0  0
   -3.2887   -0.0277   -1.0917 C   0  0  0  0  0  0  0  0  0  0  0  0
   -4.5800   -0.0069   -1.6064 O   0  0  0  0  0  0  0  0  0  0  0  0
   -4.9621   -0.6664   -2.7870 C   0  0  0  0  0  0  0  0  0  0  0  0
   -2.2057   -0.5131   -1.7864 C   0  0  0  0  0  0  0  0  0  0  0  0
    2.3084   -1.0690    0.6779 C   0  0  0  0  0  0  0  0  0  0  0  0
    3.5573   -0.7237    1.1466 C   0  0  0  0  0  0  0  0  0  0  0  0
    4.1400   -1.3962    2.2657 N   0  0  0  0  0  0  0  0  0  0  0  0
  1  2  1  0  0  0  0
  2  3  1  0  0  0  0
  3  4  2  0  0  0  0
  4  5  1  0  0  0  0
  5  6  2  0  0  0  0
  6  7  1  0  0  0  0
  6 21  1  0  0  0  0
  7  8  2  0  0  0  0
  8  9  1  0  0  0  0
  9 10  2  0  0  0  0
 10 11  1  0  0  0  0
 11 12  1  0  0  0  0
 11 14  2  0  0  0  0
 12 13  1  0  0  0  0
 14 15  1  0  0  0  0
 14 17  1  0  0  0  0
 15 16  1  0  0  0  0
 17 18  1  0  0  0  0
 17 20  2  0  0  0  0
 18 19  1  0  0  0  0
 20  9  1  0  0  0  0
 21 22  2  0  0  0  0
 22 23  1  0  0  0  0
 22  3  1  0  0  0  0
M  END
>  <zinc_id>
ZINC000000007280

>  <smiles>
COc1ccc(/C=C\c2cc(OC)c(OC)c(OC)c2)cc1N

$$$$
