
 OpenBabel07162211283D

 18 19  0  0  0  0  0  0  0  0999 V2000
    4.5426    1.8692    0.2296 O   0  0  0  0  0  0  0  0  0  0  0  0
    3.6111    0.9111   -0.1811 C   0  0  0  0  0  0  0  0  0  0  0  0
    2.3902    1.2797   -0.7193 C   0  0  0  0  0  0  0  0  0  0  0  0
    1.2565    0.5377   -0.4118 C   0  0  0  0  0  0  0  0  0  0  0  0
    1.3618   -0.7709   -0.0148 C   0  0  0  0  0  0  0  0  0  0  0  0
    0.4991   -1.8418   -0.5043 C   0  0  0  0  0  0  0  0  0  0  0  0
   -0.5796   -1.5470   -1.2018 C   0  0  0  0  0  0  0  0  0  0  0  0
   -1.3776   -0.4207   -0.7015 C   0  0  0  0  0  0  0  0  0  0  0  0
   -2.1172    0.3455   -1.5763 C   0  0  0  0  0  0  0  0  0  0  0  0
   -3.1997    1.1127   -1.1738 C   0  0  0  0  0  0  0  0  0  0  0  0
   -3.4766    2.3610   -1.7404 O   0  0  0  0  0  0  0  0  0  0  0  0
   -3.7820    0.7386    0.0307 C   0  0  0  0  0  0  0  0  0  0  0  0
   -3.1072   -0.0391    0.9618 C   0  0  0  0  0  0  0  0  0  0  0  0
   -3.3907    0.0188    2.3276 O   0  0  0  0  0  0  0  0  0  0  0  0
   -1.8541   -0.5188    0.6014 C   0  0  0  0  0  0  0  0  0  0  0  0
    2.6075   -1.1767    0.4495 C   0  0  0  0  0  0  0  0  0  0  0  0
    2.9106   -2.5323    0.6103 O   0  0  0  0  0  0  0  0  0  0  0  0
    3.7052   -0.3270    0.4216 C   0  0  0  0  0  0  0  0  0  0  0  0
  1  2  1  0  0  0  0
  2  3  2  0  0  0  0
  3  4  1  0  0  0  0
  4  5  2  0  0  0  0
  5  6  1  0  0  0  0
  5 16  1  0  0  0  0
  6  7  2  0  0  0  0
  7  8  1  0  0  0  0
  8  9  2  0  0  0  0
  9 10  1  0  0  0  0
 10 11  1  0  0  0  0
 10 12  2  0  0  0  0
 12 13  1  0  0  0  0
 13 14  1  0  0  0  0
 13 15  2  0  0  0  0
 15  8  1  0  0  0  0
 16 17  1  0  0  0  0
 16 18  2  0  0  0  0
 18  2  1  0  0  0  0
M  END
>  <zinc_id>
ZINC000005641949

>  <smiles>
Oc1cc(O)cc(/C=C\c2ccc(O)cc2O)c1

$$$$
