
 OpenBabel07162211283D

 21 22  0  0  0  0  0  0  0  0999 V2000
   -2.3808   -3.5141    0.2083 C   0  0  0  0  0  0  0  0  0  0  0  0
   -2.3125   -2.3656    1.0443 O   0  0  0  0  0  0  0  0  0  0  0  0
   -2.3654   -1.0670    0.5273 C   0  0  0  0  0  0  0  0  0  0  0  0
   -1.2898   -0.2275    0.5356 C   0  0  0  0  0  0  0  0  0  0  0  0
   -1.3652    1.1399    0.3185 C   0  0  0  0  0  0  0  0  0  0  0  0
   -0.4710    2.0866    0.9994 C   0  0  0  0  0  0  0  0  0  0  0  0
    0.6572    1.5556    1.4723 C   0  0  0  0  0  0  0  0  0  0  0  0
    1.4706    0.8521    0.4698 C   0  0  0  0  0  0  0  0  0  0  0  0
    2.2782    1.6488   -0.3337 C   0  0  0  0  0  0  0  0  0  0  0  0
    3.5642    1.2685   -0.6951 C   0  0  0  0  0  0  0  0  0  0  0  0
    4.1441    0.1462   -0.1160 C   0  0  0  0  0  0  0  0  0  0  0  0
    5.4811    0.1571    0.2952 O   0  0  0  0  0  0  0  0  0  0  0  0
    3.2416   -0.8047    0.3447 C   0  0  0  0  0  0  0  0  0  0  0  0
    3.7659   -2.0674    0.6307 O   0  0  0  0  0  0  0  0  0  0  0  0
    4.6253   -2.6807   -0.3034 C   0  0  0  0  0  0  0  0  0  0  0  0
    1.9903   -0.4050    0.7580 C   0  0  0  0  0  0  0  0  0  0  0  0
   -2.6469    1.6257    0.0807 C   0  0  0  0  0  0  0  0  0  0  0  0
   -3.7620    0.8050    0.0681 C   0  0  0  0  0  0  0  0  0  0  0  0
   -5.0643    1.3138    0.0972 O   0  0  0  0  0  0  0  0  0  0  0  0
   -5.9844    1.1016   -0.9414 C   0  0  0  0  0  0  0  0  0  0  0  0
   -3.5762   -0.5690    0.1158 C   0  0  0  0  0  0  0  0  0  0  0  0
  1  2  1  0  0  0  0
  2  3  1  0  0  0  0
  3  4  2  0  0  0  0
  4  5  1  0  0  0  0
  5  6  1  0  0  0  0
  5 17  2  0  0  0  0
  6  7  2  0  0  0  0
  7  8  1  0  0  0  0
  8  9  2  0  0  0  0
  9 10  1  0  0  0  0
 10 11  2  0  0  0  0
 11 12  1  0  0  0  0
 11 13  1  0  0  0  0
 13 14  1  0  0  0  0
 13 16  2  0  0  0  0
 14 15  1  0  0  0  0
 16  8  1  0  0  0  0
 17 18  1  0  0  0  0
 18 19  1  0  0  0  0
 18 21  2  0  0  0  0
 19 20  1  0  0  0  0
 21  3  1  0  0  0  0
M  END
>  <zinc_id>
ZINC000005663472

>  <smiles>
COc1cc(/C=C\c2ccc(O)c(OC)c2)cc(OC)c1

$$$$
