
 OpenBabel07162211283D

 27 29  0  0  0  0  0  0  0  0999 V2000
   -4.3667    2.3664    1.1555 C   0  0  0  0  0  0  0  0  0  0  0  0
   -3.8672    1.1579    1.7184 O   0  0  0  0  0  0  0  0  0  0  0  0
   -3.0506    0.3717    0.9072 C   0  0  0  0  0  0  0  0  0  0  0  0
   -1.7930    0.7857    0.5311 C   0  0  0  0  0  0  0  0  0  0  0  0
   -0.9807    0.0546   -0.3259 C   0  0  0  0  0  0  0  0  0  0  0  0
   -0.0900    0.8548   -1.1775 C   0  0  0  0  0  0  0  0  0  0  0  0
    0.9719    1.3784   -0.5793 C   0  0  0  0  0  0  0  0  0  0  0  0
    1.5320    2.4968   -1.2041 O   0  0  0  0  0  0  0  0  0  0  0  0
    1.9411    3.5387   -0.3916 C   0  0  0  0  0  0  0  0  0  0  0  0
    2.8600    4.5385   -1.0204 C   0  0  0  0  0  0  0  0  0  0  0  0
    1.2294    3.8550    0.6045 O   0  0  0  0  0  0  0  0  0  0  0  0
    1.7890    0.4357    0.1968 C   0  0  0  0  0  0  0  0  0  0  0  0
    2.9713    0.9571    0.7086 C   0  0  0  0  0  0  0  0  0  0  0  0
    4.0157    0.1302    1.1018 C   0  0  0  0  0  0  0  0  0  0  0  0
    4.1777   -1.0368    0.3643 C   0  0  0  0  0  0  0  0  0  0  0  0
    2.9981   -1.6607   -0.0195 C   0  0  0  0  0  0  0  0  0  0  0  0
    1.8525   -0.9050   -0.1647 C   0  0  0  0  0  0  0  0  0  0  0  0
    3.2460   -3.0272   -0.1758 O   0  0  0  0  0  0  0  0  0  0  0  0
    4.6049   -3.2750    0.1678 C   0  0  0  0  0  0  0  0  0  0  0  0
    5.1789   -1.9749    0.2333 O   0  0  0  0  0  0  0  0  0  0  0  0
   -1.5882   -1.0317   -0.9427 C   0  0  0  0  0  0  0  0  0  0  0  0
   -2.8633   -1.4591   -0.5947 C   0  0  0  0  0  0  0  0  0  0  0  0
   -3.5418   -2.4110   -1.3609 O   0  0  0  0  0  0  0  0  0  0  0  0
   -3.8852   -2.0121   -2.6833 C   0  0  0  0  0  0  0  0  0  0  0  0
   -3.5754   -0.7772    0.3543 C   0  0  0  0  0  0  0  0  0  0  0  0
   -4.8372   -1.2389    0.7383 O   0  0  0  0  0  0  0  0  0  0  0  0
   -4.9294   -2.1117    1.8585 C   0  0  0  0  0  0  0  0  0  0  0  0
  1  2  1  0  0  0  0
  2  3  1  0  0  0  0
  3  4  2  0  0  0  0
  4  5  1  0  0  0  0
  5  6  1  0  0  0  0
  5 21  2  0  0  0  0
  6  7  2  0  0  0  0
  7  8  1  0  0  0  0
  7 12  1  0  0  0  0
  8  9  1  0  0  0  0
  9 10  1  0  0  0  0
  9 11  2  0  0  0  0
 12 13  2  0  0  0  0
 13 14  1  0  0  0  0
 14 15  2  0  0  0  0
 15 16  1  0  0  0  0
 16 17  2  0  0  0  0
 16 18  1  0  0  0  0
 17 12  1  0  0  0  0
 18 19  1  0  0  0  0
 19 20  1  0  0  0  0
 20 15  1  0  0  0  0
 21 22  1  0  0  0  0
 22 23  1  0  0  0  0
 22 25  2  0  0  0  0
 23 24  1  0  0  0  0
 25 26  1  0  0  0  0
 25  3  1  0  0  0  0
 26 27  1  0  0  0  0
M  END
>  <zinc_id>
ZINC000005663728

>  <smiles>
COc1cc(/C=C(/OC(C)=O)c2ccc3c(c2)OCO3)cc(OC)c1OC

$$$$
