
 OpenBabel07162211283D

 24 25  0  0  0  0  0  0  0  0999 V2000
    5.6230    0.7425    3.0136 C   0  0  0  0  0  0  0  0  0  0  0  0
    5.2100    0.7897    1.6676 O   0  0  0  0  0  0  0  0  0  0  0  0
    4.1861   -0.0138    1.1557 C   0  0  0  0  0  0  0  0  0  0  0  0
    4.4048   -0.7510   -0.0018 C   0  0  0  0  0  0  0  0  0  0  0  0
    3.4174   -0.8067   -0.9784 C   0  0  0  0  0  0  0  0  0  0  0  0
    2.1298   -0.3431   -0.7354 C   0  0  0  0  0  0  0  0  0  0  0  0
    1.3125   -0.0936   -1.9140 C   0  0  0  0  0  0  0  0  0  0  0  0
    1.8802    0.1615   -3.2190 C   0  0  0  0  0  0  0  0  0  0  0  0
    2.4112    0.2405   -4.2542 N   0  0  0  0  0  0  0  0  0  0  0  0
    0.0684   -0.5557   -1.8626 C   0  0  0  0  0  0  0  0  0  0  0  0
   -0.7139   -0.2018   -0.6701 C   0  0  0  0  0  0  0  0  0  0  0  0
   -1.6046    0.8522   -0.8346 C   0  0  0  0  0  0  0  0  0  0  0  0
   -2.8511    0.8784   -0.2400 C   0  0  0  0  0  0  0  0  0  0  0  0
   -3.7882    1.8819   -0.5032 O   0  0  0  0  0  0  0  0  0  0  0  0
   -3.4568    3.2346   -0.2580 C   0  0  0  0  0  0  0  0  0  0  0  0
   -3.1445   -0.0370    0.7342 C   0  0  0  0  0  0  0  0  0  0  0  0
   -4.3708   -0.0153    1.3587 O   0  0  0  0  0  0  0  0  0  0  0  0
   -4.7741    1.1617    2.0387 C   0  0  0  0  0  0  0  0  0  0  0  0
   -2.4079   -1.2067    0.7530 C   0  0  0  0  0  0  0  0  0  0  0  0
   -2.9023   -2.3547    1.3779 O   0  0  0  0  0  0  0  0  0  0  0  0
   -4.2161   -2.8041    1.1700 C   0  0  0  0  0  0  0  0  0  0  0  0
   -1.1244   -1.1854    0.2216 C   0  0  0  0  0  0  0  0  0  0  0  0
    1.8587    0.2148    0.5046 C   0  0  0  0  0  0  0  0  0  0  0  0
    2.8527    0.2111    1.4756 C   0  0  0  0  0  0  0  0  0  0  0  0
  1  2  1  0  0  0  0
  2  3  1  0  0  0  0
  3  4  2  0  0  0  0
  4  5  1  0  0  0  0
  5  6  2  0  0  0  0
  6  7  1  0  0  0  0
  6 23  1  0  0  0  0
  7  8  1  0  0  0  0
  7 10  2  0  0  0  0
  8  9  3  0  0  0  0
 10 11  1  0  0  0  0
 11 12  2  0  0  0  0
 12 13  1  0  0  0  0
 13 14  1  0  0  0  0
 13 16  2  0  0  0  0
 14 15  1  0  0  0  0
 16 17  1  0  0  0  0
 16 19  1  0  0  0  0
 17 18  1  0  0  0  0
 19 20  1  0  0  0  0
 19 22  2  0  0  0  0
 20 21  1  0  0  0  0
 22 11  1  0  0  0  0
 23 24  2  0  0  0  0
 24  3  1  0  0  0  0
M  END
>  <zinc_id>
ZINC000005706366

>  <smiles>
COc1ccc(/C(C#N)=C\c2cc(OC)c(OC)c(OC)c2)cc1

$$$$
