
 OpenBabel07162211283D

 21 22  0  0  0  0  0  0  0  0999 V2000
   -4.2039   -0.1712    2.7687 C   0  0  0  0  0  0  0  0  0  0  0  0
   -4.1203   -0.5444    1.4014 O   0  0  0  0  0  0  0  0  0  0  0  0
   -2.9029   -0.3249    0.7495 C   0  0  0  0  0  0  0  0  0  0  0  0
   -1.6856   -0.3842    1.4170 C   0  0  0  0  0  0  0  0  0  0  0  0
   -0.5247    0.1484    0.8649 C   0  0  0  0  0  0  0  0  0  0  0  0
    0.4417    0.7108    1.8184 C   0  0  0  0  0  0  0  0  0  0  0  0
    1.4735   -0.0918    2.0830 C   0  0  0  0  0  0  0  0  0  0  0  0
    2.2554   -0.4855    0.9018 C   0  0  0  0  0  0  0  0  0  0  0  0
    2.5296    0.4741   -0.0592 C   0  0  0  0  0  0  0  0  0  0  0  0
    3.7079    0.5494   -0.7498 C   0  0  0  0  0  0  0  0  0  0  0  0
    4.7684   -0.2420   -0.3604 C   0  0  0  0  0  0  0  0  0  0  0  0
    6.0509    0.1863   -0.7092 O   0  0  0  0  0  0  0  0  0  0  0  0
    4.5258   -1.2632    0.5203 C   0  0  0  0  0  0  0  0  0  0  0  0
    3.2807   -1.3978    1.1236 C   0  0  0  0  0  0  0  0  0  0  0  0
   -0.7341    0.9183   -0.2746 C   0  0  0  0  0  0  0  0  0  0  0  0
   -1.7121    0.5058   -1.1570 C   0  0  0  0  0  0  0  0  0  0  0  0
   -1.6496    0.9954   -2.4569 O   0  0  0  0  0  0  0  0  0  0  0  0
   -0.6489    0.5490   -3.3670 C   0  0  0  0  0  0  0  0  0  0  0  0
   -2.8645   -0.0128   -0.6010 C   0  0  0  0  0  0  0  0  0  0  0  0
   -4.0142   -0.1039   -1.3668 O   0  0  0  0  0  0  0  0  0  0  0  0
   -3.9732   -0.8859   -2.5468 C   0  0  0  0  0  0  0  0  0  0  0  0
  1  2  1  0  0  0  0
  2  3  1  0  0  0  0
  3  4  2  0  0  0  0
  4  5  1  0  0  0  0
  5  6  1  0  0  0  0
  5 15  2  0  0  0  0
  6  7  2  0  0  0  0
  7  8  1  0  0  0  0
  8  9  2  0  0  0  0
  9 10  1  0  0  0  0
 10 11  2  0  0  0  0
 11 12  1  0  0  0  0
 11 13  1  0  0  0  0
 13 14  2  0  0  0  0
 14  8  1  0  0  0  0
 15 16  1  0  0  0  0
 16 17  1  0  0  0  0
 16 19  2  0  0  0  0
 17 18  1  0  0  0  0
 19 20  1  0  0  0  0
 19  3  1  0  0  0  0
 20 21  1  0  0  0  0
M  END
>  <zinc_id>
ZINC000005890470

>  <smiles>
COc1cc(/C=C\c2ccc(O)cc2)cc(OC)c1OC

$$$$
