
 OpenBabel07162211283D

 18 19  0  0  0  0  0  0  0  0999 V2000
   -5.2126   -1.7159   -1.4616 C   0  0  0  0  0  0  0  0  0  0  0  0
   -4.8455   -1.2703   -0.1654 O   0  0  0  0  0  0  0  0  0  0  0  0
   -3.7743   -0.3772   -0.0738 C   0  0  0  0  0  0  0  0  0  0  0  0
   -3.8394    0.6219    0.8668 C   0  0  0  0  0  0  0  0  0  0  0  0
   -2.7511    1.4746    1.0098 C   0  0  0  0  0  0  0  0  0  0  0  0
   -2.8281    2.6605    1.7227 O   0  0  0  0  0  0  0  0  0  0  0  0
   -1.5595    1.0463    0.4831 C   0  0  0  0  0  0  0  0  0  0  0  0
   -1.3994   -0.1755   -0.1591 C   0  0  0  0  0  0  0  0  0  0  0  0
   -0.0954   -0.3966   -0.7976 C   0  0  0  0  0  0  0  0  0  0  0  0
    0.9057   -1.0045   -0.2019 C   0  0  0  0  0  0  0  0  0  0  0  0
    2.2712   -0.5124   -0.1671 C   0  0  0  0  0  0  0  0  0  0  0  0
    2.6354    0.6907    0.4149 C   0  0  0  0  0  0  0  0  0  0  0  0
    3.9278    1.1294    0.4663 C   0  0  0  0  0  0  0  0  0  0  0  0
    4.9568    0.2537    0.2165 C   0  0  0  0  0  0  0  0  0  0  0  0
    6.2006    0.8168   -0.0586 O   0  0  0  0  0  0  0  0  0  0  0  0
    4.6297   -1.0092   -0.2469 C   0  0  0  0  0  0  0  0  0  0  0  0
    3.3170   -1.3903   -0.4228 C   0  0  0  0  0  0  0  0  0  0  0  0
   -2.5387   -0.8422   -0.5095 C   0  0  0  0  0  0  0  0  0  0  0  0
  1  2  1  0  0  0  0
  2  3  1  0  0  0  0
  3  4  2  0  0  0  0
  4  5  1  0  0  0  0
  5  6  1  0  0  0  0
  5  7  2  0  0  0  0
  7  8  1  0  0  0  0
  8  9  1  0  0  0  0
  8 18  2  0  0  0  0
  9 10  2  0  0  0  0
 10 11  1  0  0  0  0
 11 12  2  0  0  0  0
 12 13  1  0  0  0  0
 13 14  2  0  0  0  0
 14 15  1  0  0  0  0
 14 16  1  0  0  0  0
 16 17  2  0  0  0  0
 17 11  1  0  0  0  0
 18  3  1  0  0  0  0
M  END
>  <zinc_id>
ZINC000006483567

>  <smiles>
COc1cc(O)cc(/C=C/c2ccc(O)cc2)c1

$$$$
