
 OpenBabel07162211283D

 20 21  0  0  0  0  0  0  0  0999 V2000
    6.1974    1.9295    0.5757 C   0  0  0  0  0  0  0  0  0  0  0  0
    5.3463    0.7014    0.6200 C   0  0  0  0  0  0  0  0  0  0  0  0
    5.3327   -0.0621    1.6290 O   0  0  0  0  0  0  0  0  0  0  0  0
    4.6676    0.2213   -0.4956 O   0  0  0  0  0  0  0  0  0  0  0  0
    3.3697   -0.2677   -0.3227 C   0  0  0  0  0  0  0  0  0  0  0  0
    2.3752    0.4050   -1.0225 C   0  0  0  0  0  0  0  0  0  0  0  0
    1.0812    0.0047   -0.8033 C   0  0  0  0  0  0  0  0  0  0  0  0
    0.7435   -1.0750    0.0013 C   0  0  0  0  0  0  0  0  0  0  0  0
   -0.6484   -1.3725    0.3602 C   0  0  0  0  0  0  0  0  0  0  0  0
   -1.3345   -0.6840    1.2420 C   0  0  0  0  0  0  0  0  0  0  0  0
   -2.6836   -0.1611    0.9908 C   0  0  0  0  0  0  0  0  0  0  0  0
   -2.7475    1.1610    0.5769 C   0  0  0  0  0  0  0  0  0  0  0  0
   -3.6817    1.6023   -0.3507 C   0  0  0  0  0  0  0  0  0  0  0  0
   -3.7245    2.9483   -0.7044 O   0  0  0  0  0  0  0  0  0  0  0  0
   -4.6688    0.7377   -0.7805 C   0  0  0  0  0  0  0  0  0  0  0  0
   -4.7867   -0.4685   -0.1293 C   0  0  0  0  0  0  0  0  0  0  0  0
   -5.9749   -1.1863   -0.2070 O   0  0  0  0  0  0  0  0  0  0  0  0
   -3.7366   -0.9722    0.6193 C   0  0  0  0  0  0  0  0  0  0  0  0
    1.7806   -1.9443    0.3161 C   0  0  0  0  0  0  0  0  0  0  0  0
    3.0929   -1.5173    0.1589 C   0  0  0  0  0  0  0  0  0  0  0  0
  1  2  1  0  0  0  0
  2  3  2  0  0  0  0
  2  4  1  0  0  0  0
  4  5  1  0  0  0  0
  5  6  2  0  0  0  0
  6  7  1  0  0  0  0
  7  8  2  0  0  0  0
  8  9  1  0  0  0  0
  8 19  1  0  0  0  0
  9 10  2  0  0  0  0
 10 11  1  0  0  0  0
 11 12  2  0  0  0  0
 12 13  1  0  0  0  0
 13 14  1  0  0  0  0
 13 15  2  0  0  0  0
 15 16  1  0  0  0  0
 16 17  1  0  0  0  0
 16 18  2  0  0  0  0
 18 11  1  0  0  0  0
 19 20  2  0  0  0  0
 20  5  1  0  0  0  0
M  END
>  <zinc_id>
ZINC000008700332

>  <smiles>
CC(=O)Oc1ccc(/C=C/c2cc(O)cc(O)c2)cc1

$$$$
