
 OpenBabel07162211283D

 17 18  0  0  0  0  0  0  0  0999 V2000
    4.8752    1.0351    1.2389 O   0  0  0  0  0  0  0  0  0  0  0  0
    3.8421    0.4499    0.5295 C   0  0  0  0  0  0  0  0  0  0  0  0
    2.5660    0.6027    1.0566 C   0  0  0  0  0  0  0  0  0  0  0  0
    1.4979    0.1117    0.3278 C   0  0  0  0  0  0  0  0  0  0  0  0
    1.6423   -0.7208   -0.7488 C   0  0  0  0  0  0  0  0  0  0  0  0
    0.7328   -0.7657   -1.8838 C   0  0  0  0  0  0  0  0  0  0  0  0
   -0.3153    0.0502   -1.8290 C   0  0  0  0  0  0  0  0  0  0  0  0
   -1.1275   -0.0613   -0.6097 C   0  0  0  0  0  0  0  0  0  0  0  0
   -1.5985    1.1480   -0.1111 C   0  0  0  0  0  0  0  0  0  0  0  0
   -2.7601    1.2727    0.6028 C   0  0  0  0  0  0  0  0  0  0  0  0
   -3.1253    2.5149    1.1300 O   0  0  0  0  0  0  0  0  0  0  0  0
   -3.6066    0.2006    0.6897 C   0  0  0  0  0  0  0  0  0  0  0  0
   -3.2438   -1.0108    0.1136 C   0  0  0  0  0  0  0  0  0  0  0  0
   -4.3062   -1.8896   -0.1211 O   0  0  0  0  0  0  0  0  0  0  0  0
   -2.0308   -1.1164   -0.5357 C   0  0  0  0  0  0  0  0  0  0  0  0
    2.9369   -1.1667   -0.9967 C   0  0  0  0  0  0  0  0  0  0  0  0
    4.0211   -0.6545   -0.2937 C   0  0  0  0  0  0  0  0  0  0  0  0
  1  2  1  0  0  0  0
  2  3  2  0  0  0  0
  3  4  1  0  0  0  0
  4  5  2  0  0  0  0
  5  6  1  0  0  0  0
  5 16  1  0  0  0  0
  6  7  2  0  0  0  0
  7  8  1  0  0  0  0
  8  9  2  0  0  0  0
  9 10  1  0  0  0  0
 10 11  1  0  0  0  0
 10 12  2  0  0  0  0
 12 13  1  0  0  0  0
 13 14  1  0  0  0  0
 13 15  2  0  0  0  0
 15  8  1  0  0  0  0
 16 17  2  0  0  0  0
 17  2  1  0  0  0  0
M  END
>  <zinc_id>
ZINC000012353732

>  <smiles>
Oc1ccc(/C=C\c2cc(O)cc(O)c2)cc1

$$$$
