
 OpenBabel07162211283D

 19 20  0  0  0  0  0  0  0  0999 V2000
    4.5740    1.7355   -0.9523 C   0  0  0  0  0  0  0  0  0  0  0  0
    4.6602    0.3809   -0.5255 O   0  0  0  0  0  0  0  0  0  0  0  0
    3.4504   -0.2144   -0.1556 C   0  0  0  0  0  0  0  0  0  0  0  0
    3.2598   -0.7052    1.1104 C   0  0  0  0  0  0  0  0  0  0  0  0
    1.9396   -0.8270    1.5277 C   0  0  0  0  0  0  0  0  0  0  0  0
    0.9159   -1.0532    0.6149 C   0  0  0  0  0  0  0  0  0  0  0  0
   -0.1832   -1.8975    1.1016 C   0  0  0  0  0  0  0  0  0  0  0  0
   -1.2678   -1.2253    1.4907 C   0  0  0  0  0  0  0  0  0  0  0  0
   -1.8383   -0.3489    0.4595 C   0  0  0  0  0  0  0  0  0  0  0  0
   -2.9561   -0.8557   -0.1927 C   0  0  0  0  0  0  0  0  0  0  0  0
   -3.8452   -0.0509   -0.8733 C   0  0  0  0  0  0  0  0  0  0  0  0
   -4.6664   -0.7021   -1.7999 O   0  0  0  0  0  0  0  0  0  0  0  0
   -3.7002    1.3103   -0.8534 C   0  0  0  0  0  0  0  0  0  0  0  0
   -2.6862    1.8558   -0.0838 C   0  0  0  0  0  0  0  0  0  0  0  0
   -2.3761    3.1929   -0.2516 O   0  0  0  0  0  0  0  0  0  0  0  0
   -1.7818    1.0327    0.5623 C   0  0  0  0  0  0  0  0  0  0  0  0
    1.2259   -0.9643   -0.7358 C   0  0  0  0  0  0  0  0  0  0  0  0
    2.4882   -0.5304   -1.1057 C   0  0  0  0  0  0  0  0  0  0  0  0
    2.7872   -0.1332   -2.4118 O   0  0  0  0  0  0  0  0  0  0  0  0
  1  2  1  0  0  0  0
  2  3  1  0  0  0  0
  3  4  2  0  0  0  0
  4  5  1  0  0  0  0
  5  6  2  0  0  0  0
  6  7  1  0  0  0  0
  6 17  1  0  0  0  0
  7  8  2  0  0  0  0
  8  9  1  0  0  0  0
  9 10  2  0  0  0  0
 10 11  1  0  0  0  0
 11 12  1  0  0  0  0
 11 13  2  0  0  0  0
 13 14  1  0  0  0  0
 14 15  1  0  0  0  0
 14 16  2  0  0  0  0
 16  9  1  0  0  0  0
 17 18  2  0  0  0  0
 18 19  1  0  0  0  0
 18  3  1  0  0  0  0
M  END
>  <zinc_id>
ZINC000013340290

>  <smiles>
COc1ccc(/C=C\c2cc(O)cc(O)c2)cc1O

$$$$
