
 OpenBabel07162211283D

 20 21  0  0  0  0  0  0  0  0999 V2000
   -5.1421    0.5046    0.9738 C   0  0  0  0  0  0  0  0  0  0  0  0
   -4.7858   -0.0247   -0.3022 O   0  0  0  0  0  0  0  0  0  0  0  0
   -3.4583   -0.4226   -0.4911 C   0  0  0  0  0  0  0  0  0  0  0  0
   -2.9993   -1.6687   -0.1039 C   0  0  0  0  0  0  0  0  0  0  0  0
   -1.7498   -1.8096    0.4899 C   0  0  0  0  0  0  0  0  0  0  0  0
   -0.8166   -0.7803    0.4401 C   0  0  0  0  0  0  0  0  0  0  0  0
    0.0717   -0.6991    1.6091 C   0  0  0  0  0  0  0  0  0  0  0  0
    1.2457   -1.3078    1.4310 C   0  0  0  0  0  0  0  0  0  0  0  0
    2.0316   -0.8030    0.2957 C   0  0  0  0  0  0  0  0  0  0  0  0
    3.2789   -1.4011    0.1453 C   0  0  0  0  0  0  0  0  0  0  0  0
    4.3642   -0.7310   -0.3800 C   0  0  0  0  0  0  0  0  0  0  0  0
    5.5689   -1.3251   -0.6886 O   0  0  0  0  0  0  0  0  0  0  0  0
    4.2992    0.6452   -0.5533 C   0  0  0  0  0  0  0  0  0  0  0  0
    3.1030    1.2779   -0.3683 C   0  0  0  0  0  0  0  0  0  0  0  0
    3.0755    2.6724   -0.4193 O   0  0  0  0  0  0  0  0  0  0  0  0
    2.0155    0.5617    0.0379 C   0  0  0  0  0  0  0  0  0  0  0  0
   -1.2406    0.3713   -0.1979 C   0  0  0  0  0  0  0  0  0  0  0  0
   -2.4997    0.5490   -0.7008 C   0  0  0  0  0  0  0  0  0  0  0  0
   -2.8349    1.6288   -1.5215 O   0  0  0  0  0  0  0  0  0  0  0  0
   -3.5274    2.7621   -1.0701 C   0  0  0  0  0  0  0  0  0  0  0  0
  1  2  1  0  0  0  0
  2  3  1  0  0  0  0
  3  4  2  0  0  0  0
  4  5  1  0  0  0  0
  5  6  2  0  0  0  0
  6  7  1  0  0  0  0
  6 17  1  0  0  0  0
  7  8  2  0  0  0  0
  8  9  1  0  0  0  0
  9 10  2  0  0  0  0
 10 11  1  0  0  0  0
 11 12  1  0  0  0  0
 11 13  2  0  0  0  0
 13 14  1  0  0  0  0
 14 15  1  0  0  0  0
 14 16  2  0  0  0  0
 16  9  1  0  0  0  0
 17 18  2  0  0  0  0
 18 19  1  0  0  0  0
 18  3  1  0  0  0  0
 19 20  1  0  0  0  0
M  END
>  <zinc_id>
ZINC000013340297

>  <smiles>
COc1ccc(/C=C\c2cc(O)cc(O)c2)cc1OC

$$$$
