
 OpenBabel07162211283D

 20 21  0  0  0  0  0  0  0  0999 V2000
    5.8318   -0.6667    0.4866 C   0  0  0  0  0  0  0  0  0  0  0  0
    5.4357    0.7005    0.4737 O   0  0  0  0  0  0  0  0  0  0  0  0
    4.1166    1.0910    0.2213 C   0  0  0  0  0  0  0  0  0  0  0  0
    3.0667    0.6349    1.0103 C   0  0  0  0  0  0  0  0  0  0  0  0
    1.8686    0.2271    0.4368 C   0  0  0  0  0  0  0  0  0  0  0  0
    1.6488    0.3418   -0.9295 C   0  0  0  0  0  0  0  0  0  0  0  0
    0.9877   -0.7147   -1.7065 C   0  0  0  0  0  0  0  0  0  0  0  0
    0.0341   -1.3757   -1.0753 C   0  0  0  0  0  0  0  0  0  0  0  0
   -1.0277   -0.5402   -0.4948 C   0  0  0  0  0  0  0  0  0  0  0  0
   -2.1888   -0.4576   -1.2582 C   0  0  0  0  0  0  0  0  0  0  0  0
   -3.4408   -0.3113   -0.6763 C   0  0  0  0  0  0  0  0  0  0  0  0
   -4.6249   -0.5410   -1.3773 O   0  0  0  0  0  0  0  0  0  0  0  0
   -4.9375   -1.8618   -1.7743 C   0  0  0  0  0  0  0  0  0  0  0  0
   -3.4777   -0.0559    0.6877 C   0  0  0  0  0  0  0  0  0  0  0  0
   -2.3689   -0.2658    1.4639 C   0  0  0  0  0  0  0  0  0  0  0  0
   -2.3559    0.1501    2.7995 O   0  0  0  0  0  0  0  0  0  0  0  0
   -3.5949    0.1907    3.4733 C   0  0  0  0  0  0  0  0  0  0  0  0
   -1.2487   -0.7670    0.8604 C   0  0  0  0  0  0  0  0  0  0  0  0
    2.5363    1.1785   -1.5959 C   0  0  0  0  0  0  0  0  0  0  0  0
    3.7395    1.5774   -1.0253 C   0  0  0  0  0  0  0  0  0  0  0  0
  1  2  1  0  0  0  0
  2  3  1  0  0  0  0
  3  4  2  0  0  0  0
  4  5  1  0  0  0  0
  5  6  2  0  0  0  0
  6  7  1  0  0  0  0
  6 19  1  0  0  0  0
  7  8  2  0  0  0  0
  8  9  1  0  0  0  0
  9 10  2  0  0  0  0
 10 11  1  0  0  0  0
 11 12  1  0  0  0  0
 11 14  2  0  0  0  0
 12 13  1  0  0  0  0
 14 15  1  0  0  0  0
 15 16  1  0  0  0  0
 15 18  2  0  0  0  0
 16 17  1  0  0  0  0
 18  9  1  0  0  0  0
 19 20  2  0  0  0  0
 20  3  1  0  0  0  0
M  END
>  <zinc_id>
ZINC000000009252

>  <smiles>
COc1ccc(/C=C\c2cc(OC)cc(OC)c2)cc1

$$$$
