
 OpenBabel07162211283D

 20 21  0  0  0  0  0  0  0  0999 V2000
   -4.0979    2.1241    0.7508 C   0  0  0  0  0  0  0  0  0  0  0  0
   -3.4335    1.2829    1.6909 O   0  0  0  0  0  0  0  0  0  0  0  0
   -2.6083    0.2978    1.1400 C   0  0  0  0  0  0  0  0  0  0  0  0
   -1.4547    0.6133    0.4328 C   0  0  0  0  0  0  0  0  0  0  0  0
   -0.7824   -0.3315   -0.3334 C   0  0  0  0  0  0  0  0  0  0  0  0
   -0.0959    0.1990   -1.5182 C   0  0  0  0  0  0  0  0  0  0  0  0
    0.6440    1.2766   -1.3210 C   0  0  0  0  0  0  0  0  0  0  0  0
    1.6079    1.2081   -0.2145 C   0  0  0  0  0  0  0  0  0  0  0  0
    2.5257    2.2458   -0.0991 C   0  0  0  0  0  0  0  0  0  0  0  0
    3.8640    2.0121    0.1961 C   0  0  0  0  0  0  0  0  0  0  0  0
    4.2786    0.7360    0.5565 C   0  0  0  0  0  0  0  0  0  0  0  0
    5.5669    0.2719    0.3320 O   0  0  0  0  0  0  0  0  0  0  0  0
    3.3002   -0.2262    0.7729 C   0  0  0  0  0  0  0  0  0  0  0  0
    3.5981   -1.2217    1.7096 O   0  0  0  0  0  0  0  0  0  0  0  0
    1.9997   -0.0058    0.3358 C   0  0  0  0  0  0  0  0  0  0  0  0
   -1.3619   -1.5908   -0.4028 C   0  0  0  0  0  0  0  0  0  0  0  0
   -2.5650   -1.9032    0.1754 C   0  0  0  0  0  0  0  0  0  0  0  0
   -3.2607   -3.0813   -0.0668 O   0  0  0  0  0  0  0  0  0  0  0  0
   -4.5499   -2.9453   -0.6603 C   0  0  0  0  0  0  0  0  0  0  0  0
   -3.1748   -0.9619    0.9949 C   0  0  0  0  0  0  0  0  0  0  0  0
  1  2  1  0  0  0  0
  2  3  1  0  0  0  0
  3  4  2  0  0  0  0
  4  5  1  0  0  0  0
  5  6  1  0  0  0  0
  5 16  2  0  0  0  0
  6  7  2  0  0  0  0
  7  8  1  0  0  0  0
  8  9  2  0  0  0  0
  9 10  1  0  0  0  0
 10 11  2  0  0  0  0
 11 12  1  0  0  0  0
 11 13  1  0  0  0  0
 13 14  1  0  0  0  0
 13 15  2  0  0  0  0
 15  8  1  0  0  0  0
 16 17  1  0  0  0  0
 17 18  1  0  0  0  0
 17 20  2  0  0  0  0
 18 19  1  0  0  0  0
 20  3  1  0  0  0  0
M  END
>  <zinc_id>
ZINC000013340299

>  <smiles>
COc1cc(/C=C\c2ccc(O)c(O)c2)cc(OC)c1

$$$$
