
 OpenBabel07162211283D

 22 23  0  0  0  0  0  0  0  0999 V2000
   -3.5505   -3.3796    0.0935 C   0  0  0  0  0  0  0  0  0  0  0  0
   -2.5774   -2.4624    0.5059 O   0  0  0  0  0  0  0  0  0  0  0  0
   -2.7857   -1.0902    0.6115 C   0  0  0  0  0  0  0  0  0  0  0  0
   -1.8678   -0.3191    1.3127 C   0  0  0  0  0  0  0  0  0  0  0  0
   -1.4759    0.9173    0.8066 C   0  0  0  0  0  0  0  0  0  0  0  0
   -0.5577    1.6809    1.6608 C   0  0  0  0  0  0  0  0  0  0  0  0
    0.6262    1.0979    1.8561 C   0  0  0  0  0  0  0  0  0  0  0  0
    1.3678    0.7731    0.6369 C   0  0  0  0  0  0  0  0  0  0  0  0
    1.0247   -0.2239   -0.2328 C   0  0  0  0  0  0  0  0  0  0  0  0
    1.9734   -1.0386   -0.8152 C   0  0  0  0  0  0  0  0  0  0  0  0
    3.3254   -0.8464   -0.5864 C   0  0  0  0  0  0  0  0  0  0  0  0
    4.2962   -1.6721   -1.1621 O   0  0  0  0  0  0  0  0  0  0  0  0
    4.3526   -3.0630   -0.8804 C   0  0  0  0  0  0  0  0  0  0  0  0
    3.6815    0.3384    0.0438 C   0  0  0  0  0  0  0  0  0  0  0  0
    4.9553    0.8778   -0.1577 O   0  0  0  0  0  0  0  0  0  0  0  0
    4.9939    2.2462   -0.5214 C   0  0  0  0  0  0  0  0  0  0  0  0
    2.7114    1.1330    0.6446 C   0  0  0  0  0  0  0  0  0  0  0  0
   -2.4999    1.6469    0.2125 C   0  0  0  0  0  0  0  0  0  0  0  0
   -3.6521    0.9974   -0.2132 C   0  0  0  0  0  0  0  0  0  0  0  0
   -4.7855    1.7296   -0.5607 O   0  0  0  0  0  0  0  0  0  0  0  0
   -5.9359    1.0477   -0.9951 C   0  0  0  0  0  0  0  0  0  0  0  0
   -3.6201   -0.3911   -0.2526 C   0  0  0  0  0  0  0  0  0  0  0  0
  1  2  1  0  0  0  0
  2  3  1  0  0  0  0
  3  4  2  0  0  0  0
  4  5  1  0  0  0  0
  5  6  1  0  0  0  0
  5 18  2  0  0  0  0
  6  7  2  0  0  0  0
  7  8  1  0  0  0  0
  8  9  2  0  0  0  0
  9 10  1  0  0  0  0
 10 11  2  0  0  0  0
 11 12  1  0  0  0  0
 11 14  1  0  0  0  0
 12 13  1  0  0  0  0
 14 15  1  0  0  0  0
 14 17  2  0  0  0  0
 15 16  1  0  0  0  0
 17  8  1  0  0  0  0
 18 19  1  0  0  0  0
 19 20  1  0  0  0  0
 19 22  2  0  0  0  0
 20 21  1  0  0  0  0
 22  3  1  0  0  0  0
M  END
>  <zinc_id>
ZINC000013340303

>  <smiles>
COc1cc(/C=C\c2ccc(OC)c(OC)c2)cc(OC)c1

$$$$
