
 OpenBabel07162211283D

 26 27  0  0  0  0  0  0  0  0999 V2000
    7.1839    2.2802   -0.6856 C   0  0  0  0  0  0  0  0  0  0  0  0
    6.0349    1.4141   -1.0899 C   0  0  0  0  0  0  0  0  0  0  0  0
    5.8361    1.1988   -2.3218 O   0  0  0  0  0  0  0  0  0  0  0  0
    5.5291    0.4349   -0.2311 O   0  0  0  0  0  0  0  0  0  0  0  0
    4.1889    0.0711   -0.3942 C   0  0  0  0  0  0  0  0  0  0  0  0
    3.7826   -1.2033   -0.0182 C   0  0  0  0  0  0  0  0  0  0  0  0
    2.5347   -1.4194    0.5541 C   0  0  0  0  0  0  0  0  0  0  0  0
    1.7051   -0.3537    0.8788 C   0  0  0  0  0  0  0  0  0  0  0  0
    0.9875   -0.2922    2.1589 C   0  0  0  0  0  0  0  0  0  0  0  0
   -0.1274   -1.0028    2.2305 C   0  0  0  0  0  0  0  0  0  0  0  0
   -1.0912   -0.7936    1.1424 C   0  0  0  0  0  0  0  0  0  0  0  0
   -1.8223   -1.8766    0.6693 C   0  0  0  0  0  0  0  0  0  0  0  0
   -3.1719   -1.7704    0.3537 C   0  0  0  0  0  0  0  0  0  0  0  0
   -3.8290   -2.7703   -0.3709 O   0  0  0  0  0  0  0  0  0  0  0  0
   -3.9538   -2.5524   -1.7466 C   0  0  0  0  0  0  0  0  0  0  0  0
   -4.9827   -3.2108   -2.5789 C   0  0  0  0  0  0  0  0  0  0  0  0
   -2.9258   -2.0843   -2.3207 O   0  0  0  0  0  0  0  0  0  0  0  0
   -3.7976   -0.5319    0.3974 C   0  0  0  0  0  0  0  0  0  0  0  0
   -3.0296    0.5910    0.6645 C   0  0  0  0  0  0  0  0  0  0  0  0
   -3.6827    1.8094    0.6710 O   0  0  0  0  0  0  0  0  0  0  0  0
   -3.1443    2.8430   -0.0898 C   0  0  0  0  0  0  0  0  0  0  0  0
   -3.7432    4.2087   -0.0132 C   0  0  0  0  0  0  0  0  0  0  0  0
   -1.9671    2.7006   -0.5382 O   0  0  0  0  0  0  0  0  0  0  0  0
   -1.6777    0.4488    0.9328 C   0  0  0  0  0  0  0  0  0  0  0  0
    1.9891    0.8434    0.2336 C   0  0  0  0  0  0  0  0  0  0  0  0
    3.1746    1.0177   -0.4701 C   0  0  0  0  0  0  0  0  0  0  0  0
  1  2  1  0  0  0  0
  2  3  2  0  0  0  0
  2  4  1  0  0  0  0
  4  5  1  0  0  0  0
  5  6  2  0  0  0  0
  6  7  1  0  0  0  0
  7  8  2  0  0  0  0
  8  9  1  0  0  0  0
  8 25  1  0  0  0  0
  9 10  2  0  0  0  0
 10 11  1  0  0  0  0
 11 12  2  0  0  0  0
 12 13  1  0  0  0  0
 13 14  1  0  0  0  0
 13 18  2  0  0  0  0
 14 15  1  0  0  0  0
 15 16  1  0  0  0  0
 15 17  2  0  0  0  0
 18 19  1  0  0  0  0
 19 20  1  0  0  0  0
 19 24  2  0  0  0  0
 20 21  1  0  0  0  0
 21 22  1  0  0  0  0
 21 23  2  0  0  0  0
 24 11  1  0  0  0  0
 25 26  2  0  0  0  0
 26  5  1  0  0  0  0
M  END
>  <zinc_id>
ZINC000013340991

>  <smiles>
CC(=O)Oc1ccc(/C=C\c2cc(OC(C)=O)cc(OC(C)=O)c2)cc1

$$$$
