
 OpenBabel07162211283D

 18 19  0  0  0  0  0  0  0  0999 V2000
    5.0801    1.7343    0.1974 C   0  0  0  0  0  0  0  0  0  0  0  0
    3.7312    1.6529    0.5879 O   0  0  0  0  0  0  0  0  0  0  0  0
    2.9261    0.5456    0.4134 C   0  0  0  0  0  0  0  0  0  0  0  0
    3.5650   -0.6884    0.3884 C   0  0  0  0  0  0  0  0  0  0  0  0
    2.8044   -1.8075    0.1507 C   0  0  0  0  0  0  0  0  0  0  0  0
    3.4957   -3.0168    0.0302 O   0  0  0  0  0  0  0  0  0  0  0  0
    1.4823   -1.6851   -0.2514 C   0  0  0  0  0  0  0  0  0  0  0  0
    0.8898   -0.4467   -0.4693 C   0  0  0  0  0  0  0  0  0  0  0  0
   -0.0059   -0.2485   -1.6176 C   0  0  0  0  0  0  0  0  0  0  0  0
   -0.9585    0.6653   -1.4230 C   0  0  0  0  0  0  0  0  0  0  0  0
   -1.8295    0.3814   -0.2737 C   0  0  0  0  0  0  0  0  0  0  0  0
   -2.6907   -0.6997   -0.4153 C   0  0  0  0  0  0  0  0  0  0  0  0
   -3.9752   -0.7113    0.0697 C   0  0  0  0  0  0  0  0  0  0  0  0
   -4.4580    0.3797    0.7455 C   0  0  0  0  0  0  0  0  0  0  0  0
   -5.8253    0.5735    0.8221 O   0  0  0  0  0  0  0  0  0  0  0  0
   -3.5299    1.3167    1.1687 C   0  0  0  0  0  0  0  0  0  0  0  0
   -2.3046    1.4139    0.5271 C   0  0  0  0  0  0  0  0  0  0  0  0
    1.6030    0.6407    0.0083 C   0  0  0  0  0  0  0  0  0  0  0  0
  1  2  1  0  0  0  0
  2  3  1  0  0  0  0
  3  4  2  0  0  0  0
  4  5  1  0  0  0  0
  5  6  1  0  0  0  0
  5  7  2  0  0  0  0
  7  8  1  0  0  0  0
  8  9  1  0  0  0  0
  8 18  2  0  0  0  0
  9 10  2  0  0  0  0
 10 11  1  0  0  0  0
 11 12  2  0  0  0  0
 12 13  1  0  0  0  0
 13 14  2  0  0  0  0
 14 15  1  0  0  0  0
 14 16  1  0  0  0  0
 16 17  2  0  0  0  0
 17 11  1  0  0  0  0
 18  3  1  0  0  0  0
M  END
>  <zinc_id>
ZINC000013340993

>  <smiles>
COc1cc(O)cc(/C=C\c2ccc(O)cc2)c1

$$$$
