
 OpenBabel07162211283D

 23 24  0  0  0  0  0  0  0  0999 V2000
   -6.4985    0.8613    0.4286 C   0  0  0  0  0  0  0  0  0  0  0  0
   -5.8964    0.3675   -0.7572 O   0  0  0  0  0  0  0  0  0  0  0  0
   -4.5131    0.1864   -0.8530 C   0  0  0  0  0  0  0  0  0  0  0  0
   -3.6615    1.2783   -0.9440 C   0  0  0  0  0  0  0  0  0  0  0  0
   -2.4744    1.2957   -0.2226 C   0  0  0  0  0  0  0  0  0  0  0  0
   -2.0038    0.1685    0.4400 C   0  0  0  0  0  0  0  0  0  0  0  0
   -1.3076    0.3980    1.7134 C   0  0  0  0  0  0  0  0  0  0  0  0
   -0.0958    0.8989    1.6167 C   0  0  0  0  0  0  0  0  0  0  0  0
    0.8280    0.1615    0.7428 C   0  0  0  0  0  0  0  0  0  0  0  0
    1.1861    0.6393   -0.5127 C   0  0  0  0  0  0  0  0  0  0  0  0
    2.5201    0.6833   -0.8998 C   0  0  0  0  0  0  0  0  0  0  0  0
    2.9105    1.2057   -2.1349 O   0  0  0  0  0  0  0  0  0  0  0  0
    4.1040    1.9723   -2.1479 C   0  0  0  0  0  0  0  0  0  0  0  0
    3.4547   -0.0927   -0.2252 C   0  0  0  0  0  0  0  0  0  0  0  0
    4.6570   -0.4486   -0.8400 O   0  0  0  0  0  0  0  0  0  0  0  0
    4.7364   -1.7335   -1.4445 C   0  0  0  0  0  0  0  0  0  0  0  0
    3.0761   -0.7481    0.9402 C   0  0  0  0  0  0  0  0  0  0  0  0
    4.0532   -1.3992    1.7004 O   0  0  0  0  0  0  0  0  0  0  0  0
    4.5305   -0.8250    2.9142 C   0  0  0  0  0  0  0  0  0  0  0  0
    1.7466   -0.7074    1.3196 C   0  0  0  0  0  0  0  0  0  0  0  0
   -2.7088   -1.0041    0.2005 C   0  0  0  0  0  0  0  0  0  0  0  0
   -3.9836   -0.9951   -0.3511 C   0  0  0  0  0  0  0  0  0  0  0  0
   -4.6596   -2.1630   -0.6835 O   0  0  0  0  0  0  0  0  0  0  0  0
  1  2  1  0  0  0  0
  2  3  1  0  0  0  0
  3  4  2  0  0  0  0
  4  5  1  0  0  0  0
  5  6  2  0  0  0  0
  6  7  1  0  0  0  0
  6 21  1  0  0  0  0
  7  8  2  0  0  0  0
  8  9  1  0  0  0  0
  9 10  2  0  0  0  0
 10 11  1  0  0  0  0
 11 12  1  0  0  0  0
 11 14  2  0  0  0  0
 12 13  1  0  0  0  0
 14 15  1  0  0  0  0
 14 17  1  0  0  0  0
 15 16  1  0  0  0  0
 17 18  1  0  0  0  0
 17 20  2  0  0  0  0
 18 19  1  0  0  0  0
 20  9  1  0  0  0  0
 21 22  2  0  0  0  0
 22 23  1  0  0  0  0
 22  3  1  0  0  0  0
M  END
>  <zinc_id>
ZINC000013452167

>  <smiles>
COc1ccc(/C=C\c2cc(OC)c(OC)c(OC)c2)cc1O

$$$$
