
 OpenBabel07162211283D

 23 24  0  0  0  0  0  0  0  0999 V2000
   -3.7981    2.8410    0.0800 C   0  0  0  0  0  0  0  0  0  0  0  0
   -5.0666    2.2823   -0.5536 C   0  0  0  0  0  0  0  0  0  0  0  0
   -4.8343    1.0618   -1.2104 O   0  0  0  0  0  0  0  0  0  0  0  0
   -4.0736    0.0331   -0.6892 C   0  0  0  0  0  0  0  0  0  0  0  0
   -3.6083    0.0014    0.6094 C   0  0  0  0  0  0  0  0  0  0  0  0
   -2.4601   -0.7400    0.8600 C   0  0  0  0  0  0  0  0  0  0  0  0
   -1.8404   -1.4859   -0.1379 C   0  0  0  0  0  0  0  0  0  0  0  0
   -0.9751   -2.5712    0.3422 C   0  0  0  0  0  0  0  0  0  0  0  0
    0.1363   -2.2125    0.9415 C   0  0  0  0  0  0  0  0  0  0  0  0
    0.9719   -1.2331    0.2331 C   0  0  0  0  0  0  0  0  0  0  0  0
    0.7616    0.1268    0.3945 C   0  0  0  0  0  0  0  0  0  0  0  0
    1.7738    1.0588    0.3476 C   0  0  0  0  0  0  0  0  0  0  0  0
    1.6341    2.2964    0.9713 O   0  0  0  0  0  0  0  0  0  0  0  0
    0.6950    3.2661    0.5826 C   0  0  0  0  0  0  0  0  0  0  0  0
    3.0498    0.6151    0.0368 C   0  0  0  0  0  0  0  0  0  0  0  0
    4.0119    1.5239   -0.3488 O   0  0  0  0  0  0  0  0  0  0  0  0
    4.9498    2.1202    0.5098 C   0  0  0  0  0  0  0  0  0  0  0  0
    3.3441   -0.7426    0.0032 C   0  0  0  0  0  0  0  0  0  0  0  0
    4.6647   -1.1867    0.1319 O   0  0  0  0  0  0  0  0  0  0  0  0
    4.8463   -2.5748    0.4030 C   0  0  0  0  0  0  0  0  0  0  0  0
    2.2725   -1.6096   -0.0597 C   0  0  0  0  0  0  0  0  0  0  0  0
   -2.6807   -1.8268   -1.1926 C   0  0  0  0  0  0  0  0  0  0  0  0
   -3.7747   -1.0438   -1.4976 C   0  0  0  0  0  0  0  0  0  0  0  0
  1  2  1  0  0  0  0
  2  3  1  0  0  0  0
  3  4  1  0  0  0  0
  4  5  2  0  0  0  0
  5  6  1  0  0  0  0
  6  7  2  0  0  0  0
  7  8  1  0  0  0  0
  7 22  1  0  0  0  0
  8  9  2  0  0  0  0
  9 10  1  0  0  0  0
 10 11  2  0  0  0  0
 11 12  1  0  0  0  0
 12 13  1  0  0  0  0
 12 15  2  0  0  0  0
 13 14  1  0  0  0  0
 15 16  1  0  0  0  0
 15 18  1  0  0  0  0
 16 17  1  0  0  0  0
 18 19  1  0  0  0  0
 18 21  2  0  0  0  0
 19 20  1  0  0  0  0
 21 10  1  0  0  0  0
 22 23  2  0  0  0  0
 23  4  1  0  0  0  0
M  END
>  <zinc_id>
ZINC000013456746

>  <smiles>
CCOc1ccc(/C=C\c2cc(OC)c(OC)c(OC)c2)cc1

$$$$
