
 OpenBabel07162211283D

 24 25  0  0  0  0  0  0  0  0999 V2000
    6.7533    2.2096   -0.4343 C   0  0  0  0  0  0  0  0  0  0  0  0
    6.8205    0.7074   -0.6018 C   0  0  0  0  0  0  0  0  0  0  0  0
    6.4442   -0.0338    0.6546 C   0  0  0  0  0  0  0  0  0  0  0  0
    5.4660   -1.0395    0.4045 O   0  0  0  0  0  0  0  0  0  0  0  0
    4.1199   -0.6699    0.4404 C   0  0  0  0  0  0  0  0  0  0  0  0
    3.6916    0.6133    0.1507 C   0  0  0  0  0  0  0  0  0  0  0  0
    2.4162    0.8368   -0.3537 C   0  0  0  0  0  0  0  0  0  0  0  0
    1.4912   -0.1931   -0.4724 C   0  0  0  0  0  0  0  0  0  0  0  0
    0.6015   -0.2468   -1.6434 C   0  0  0  0  0  0  0  0  0  0  0  0
   -0.5170   -0.9376   -1.4074 C   0  0  0  0  0  0  0  0  0  0  0  0
   -1.3565   -0.3404   -0.3569 C   0  0  0  0  0  0  0  0  0  0  0  0
   -2.1228   -1.1265    0.4951 C   0  0  0  0  0  0  0  0  0  0  0  0
   -3.4353   -0.7921    0.8042 C   0  0  0  0  0  0  0  0  0  0  0  0
   -4.3005   -1.6956    1.4083 O   0  0  0  0  0  0  0  0  0  0  0  0
   -3.8894   -2.7489    2.2396 C   0  0  0  0  0  0  0  0  0  0  0  0
   -4.0464    0.3123    0.2229 C   0  0  0  0  0  0  0  0  0  0  0  0
   -5.3732    0.2187   -0.2100 O   0  0  0  0  0  0  0  0  0  0  0  0
   -5.7006   -0.3889   -1.4579 C   0  0  0  0  0  0  0  0  0  0  0  0
   -3.1836    1.2638   -0.3027 C   0  0  0  0  0  0  0  0  0  0  0  0
   -3.7457    2.4808   -0.6816 O   0  0  0  0  0  0  0  0  0  0  0  0
   -3.3519    3.7169   -0.1411 C   0  0  0  0  0  0  0  0  0  0  0  0
   -1.8692    0.9278   -0.5993 C   0  0  0  0  0  0  0  0  0  0  0  0
    1.9145   -1.4236    0.0087 C   0  0  0  0  0  0  0  0  0  0  0  0
    3.1732   -1.6508    0.5067 C   0  0  0  0  0  0  0  0  0  0  0  0
  1  2  1  0  0  0  0
  2  3  1  0  0  0  0
  3  4  1  0  0  0  0
  4  5  1  0  0  0  0
  5  6  2  0  0  0  0
  6  7  1  0  0  0  0
  7  8  2  0  0  0  0
  8  9  1  0  0  0  0
  8 23  1  0  0  0  0
  9 10  2  0  0  0  0
 10 11  1  0  0  0  0
 11 12  2  0  0  0  0
 12 13  1  0  0  0  0
 13 14  1  0  0  0  0
 13 16  2  0  0  0  0
 14 15  1  0  0  0  0
 16 17  1  0  0  0  0
 16 19  1  0  0  0  0
 17 18  1  0  0  0  0
 19 20  1  0  0  0  0
 19 22  2  0  0  0  0
 20 21  1  0  0  0  0
 22 11  1  0  0  0  0
 23 24  2  0  0  0  0
 24  5  1  0  0  0  0
M  END
>  <zinc_id>
ZINC000013456750

>  <smiles>
CCCOc1ccc(/C=C\c2cc(OC)c(OC)c(OC)c2)cc1

$$$$
