
 OpenBabel07162211283D

 20 21  0  0  0  0  0  0  0  0999 V2000
   -5.1687    1.7710    1.1842 C   0  0  0  0  0  0  0  0  0  0  0  0
   -5.6859    0.6011    0.5584 O   0  0  0  0  0  0  0  0  0  0  0  0
   -4.7894   -0.3936    0.1545 C   0  0  0  0  0  0  0  0  0  0  0  0
   -4.3299   -1.3308    1.0723 C   0  0  0  0  0  0  0  0  0  0  0  0
   -2.9945   -1.7137    1.1036 C   0  0  0  0  0  0  0  0  0  0  0  0
   -2.1083   -1.2635    0.1401 C   0  0  0  0  0  0  0  0  0  0  0  0
   -0.7198   -1.0595    0.5353 C   0  0  0  0  0  0  0  0  0  0  0  0
    0.2354   -0.9236   -0.3532 C   0  0  0  0  0  0  0  0  0  0  0  0
    1.3662    0.0006   -0.1990 C   0  0  0  0  0  0  0  0  0  0  0  0
    2.1120    0.0313    0.9731 C   0  0  0  0  0  0  0  0  0  0  0  0
    3.4600    0.3623    0.9236 C   0  0  0  0  0  0  0  0  0  0  0  0
    4.2518    0.4358    2.0492 O   0  0  0  0  0  0  0  0  0  0  0  0
    4.0598    1.4624    3.0098 C   0  0  0  0  0  0  0  0  0  0  0  0
    4.0295    0.7590   -0.2799 C   0  0  0  0  0  0  0  0  0  0  0  0
    3.2746    0.8512   -1.4423 C   0  0  0  0  0  0  0  0  0  0  0  0
    3.9300    0.9352   -2.6749 O   0  0  0  0  0  0  0  0  0  0  0  0
    3.8296   -0.2317   -3.4878 C   0  0  0  0  0  0  0  0  0  0  0  0
    1.9326    0.6027   -1.3163 C   0  0  0  0  0  0  0  0  0  0  0  0
   -2.6759   -0.6438   -0.9632 C   0  0  0  0  0  0  0  0  0  0  0  0
   -4.0092   -0.2524   -0.9874 C   0  0  0  0  0  0  0  0  0  0  0  0
  1  2  1  0  0  0  0
  2  3  1  0  0  0  0
  3  4  2  0  0  0  0
  4  5  1  0  0  0  0
  5  6  2  0  0  0  0
  6  7  1  0  0  0  0
  6 19  1  0  0  0  0
  7  8  2  0  0  0  0
  8  9  1  0  0  0  0
  9 10  2  0  0  0  0
 10 11  1  0  0  0  0
 11 12  1  0  0  0  0
 11 14  2  0  0  0  0
 12 13  1  0  0  0  0
 14 15  1  0  0  0  0
 15 16  1  0  0  0  0
 15 18  2  0  0  0  0
 16 17  1  0  0  0  0
 18  9  1  0  0  0  0
 19 20  2  0  0  0  0
 20  3  1  0  0  0  0
M  END
>  <zinc_id>
ZINC000013456778

>  <smiles>
COc1ccc(/C=C/c2cc(OC)cc(OC)c2)cc1

$$$$
