
 OpenBabel07162211283D

 22 24  0  0  0  0  0  0  0  0999 V2000
   -3.6331    2.8897    0.4301 C   0  0  0  0  0  0  0  0  0  0  0  0
   -2.5070    2.1370    0.8578 O   0  0  0  0  0  0  0  0  0  0  0  0
   -2.4067    0.7740    0.6278 C   0  0  0  0  0  0  0  0  0  0  0  0
   -1.2526    0.3570   -0.0240 C   0  0  0  0  0  0  0  0  0  0  0  0
   -1.0619   -0.9648   -0.4067 C   0  0  0  0  0  0  0  0  0  0  0  0
   -0.1496   -1.3238   -1.5023 C   0  0  0  0  0  0  0  0  0  0  0  0
    0.9110   -0.5633   -1.6439 C   0  0  0  0  0  0  0  0  0  0  0  0
    1.7325   -0.3824   -0.4377 C   0  0  0  0  0  0  0  0  0  0  0  0
    1.9830    0.9028    0.0287 C   0  0  0  0  0  0  0  0  0  0  0  0
    3.1955    1.2991    0.5258 C   0  0  0  0  0  0  0  0  0  0  0  0
    4.2965    0.4621    0.3993 C   0  0  0  0  0  0  0  0  0  0  0  0
    5.5787    0.9625    0.1554 O   0  0  0  0  0  0  0  0  0  0  0  0
    5.8007    2.2867   -0.2596 C   0  0  0  0  0  0  0  0  0  0  0  0
    3.9985   -0.8889    0.2798 C   0  0  0  0  0  0  0  0  0  0  0  0
    5.1214   -1.7765    0.3399 N   0  0  0  0  0  0  0  0  0  0  0  0
    2.8071   -1.2592   -0.3336 C   0  0  0  0  0  0  0  0  0  0  0  0
   -2.1867   -1.7738   -0.2884 C   0  0  0  0  0  0  0  0  0  0  0  0
   -3.4262   -1.2697    0.0879 C   0  0  0  0  0  0  0  0  0  0  0  0
   -3.5728    0.0879    0.3351 C   0  0  0  0  0  0  0  0  0  0  0  0
   -4.8932    0.4568    0.0580 O   0  0  0  0  0  0  0  0  0  0  0  0
   -5.5938   -0.6781   -0.4455 C   0  0  0  0  0  0  0  0  0  0  0  0
   -4.7413   -1.7350   -0.0218 O   0  0  0  0  0  0  0  0  0  0  0  0
  1  2  1  0  0  0  0
  2  3  1  0  0  0  0
  3  4  2  0  0  0  0
  4  5  1  0  0  0  0
  5  6  1  0  0  0  0
  5 17  2  0  0  0  0
  6  7  2  0  0  0  0
  7  8  1  0  0  0  0
  8  9  2  0  0  0  0
  9 10  1  0  0  0  0
 10 11  2  0  0  0  0
 11 12  1  0  0  0  0
 11 14  1  0  0  0  0
 12 13  1  0  0  0  0
 14 15  1  0  0  0  0
 14 16  2  0  0  0  0
 16  8  1  0  0  0  0
 17 18  1  0  0  0  0
 18 19  2  0  0  0  0
 19 20  1  0  0  0  0
 19  3  1  0  0  0  0
 20 21  1  0  0  0  0
 21 22  1  0  0  0  0
 22 18  1  0  0  0  0
M  END
>  <zinc_id>
ZINC000013493209

>  <smiles>
COc1ccc(/C=C\c2cc(OC)c3c(c2)OCO3)cc1N

$$$$
