
 OpenBabel07162211283D

 19 20  0  0  0  0  0  0  0  0999 V2000
    4.4460    2.6633    0.5595 C   0  0  0  0  0  0  0  0  0  0  0  0
    3.8483    2.0424   -0.5604 O   0  0  0  0  0  0  0  0  0  0  0  0
    3.2108    0.8009   -0.4695 C   0  0  0  0  0  0  0  0  0  0  0  0
    1.8405    0.6642   -0.4785 C   0  0  0  0  0  0  0  0  0  0  0  0
    1.2804   -0.5324   -0.0509 C   0  0  0  0  0  0  0  0  0  0  0  0
   -0.0600   -0.8560   -0.4821 C   0  0  0  0  0  0  0  0  0  0  0  0
   -0.9180   -1.6008    0.1763 C   0  0  0  0  0  0  0  0  0  0  0  0
   -2.3190   -1.1582    0.2386 C   0  0  0  0  0  0  0  0  0  0  0  0
   -2.7407   -0.2275    1.1804 C   0  0  0  0  0  0  0  0  0  0  0  0
   -3.5955    0.7985    0.8801 C   0  0  0  0  0  0  0  0  0  0  0  0
   -3.6538    1.9967    1.5919 O   0  0  0  0  0  0  0  0  0  0  0  0
   -4.2380    0.7841   -0.3513 C   0  0  0  0  0  0  0  0  0  0  0  0
   -4.1581   -0.3666   -1.1247 C   0  0  0  0  0  0  0  0  0  0  0  0
   -4.7099   -0.2909   -2.4063 O   0  0  0  0  0  0  0  0  0  0  0  0
   -3.1724   -1.3059   -0.8484 C   0  0  0  0  0  0  0  0  0  0  0  0
    2.0929   -1.4078    0.6573 C   0  0  0  0  0  0  0  0  0  0  0  0
    3.4644   -1.3884    0.4417 C   0  0  0  0  0  0  0  0  0  0  0  0
    4.0345   -0.2652   -0.1356 C   0  0  0  0  0  0  0  0  0  0  0  0
    5.3476   -0.3503   -0.5627 O   0  0  0  0  0  0  0  0  0  0  0  0
  1  2  1  0  0  0  0
  2  3  1  0  0  0  0
  3  4  2  0  0  0  0
  4  5  1  0  0  0  0
  5  6  1  0  0  0  0
  5 16  2  0  0  0  0
  6  7  2  0  0  0  0
  7  8  1  0  0  0  0
  8  9  2  0  0  0  0
  9 10  1  0  0  0  0
 10 11  1  0  0  0  0
 10 12  2  0  0  0  0
 12 13  1  0  0  0  0
 13 14  1  0  0  0  0
 13 15  2  0  0  0  0
 15  8  1  0  0  0  0
 16 17  1  0  0  0  0
 17 18  2  0  0  0  0
 18 19  1  0  0  0  0
 18  3  1  0  0  0  0
M  END
>  <zinc_id>
ZINC000013541228

>  <smiles>
COc1cc(/C=C/c2cc(O)cc(O)c2)ccc1O

$$$$
