
 OpenBabel07162211283D

 18 19  0  0  0  0  0  0  0  0999 V2000
   -5.2185    2.2206   -0.7335 O   0  0  0  0  0  0  0  0  0  0  0  0
   -4.1851    1.3494   -0.3761 C   0  0  0  0  0  0  0  0  0  0  0  0
   -4.5148    0.0420   -0.0447 C   0  0  0  0  0  0  0  0  0  0  0  0
   -3.5915   -0.9918   -0.1271 C   0  0  0  0  0  0  0  0  0  0  0  0
   -3.8573   -2.2586    0.3969 O   0  0  0  0  0  0  0  0  0  0  0  0
   -2.3859   -0.6700   -0.7305 C   0  0  0  0  0  0  0  0  0  0  0  0
   -1.9240    0.6243   -0.5066 C   0  0  0  0  0  0  0  0  0  0  0  0
   -0.4862    0.9294   -0.4723 C   0  0  0  0  0  0  0  0  0  0  0  0
    0.3583    0.2462    0.2792 C   0  0  0  0  0  0  0  0  0  0  0  0
    1.7120   -0.0659   -0.1240 C   0  0  0  0  0  0  0  0  0  0  0  0
    2.3298    0.7427   -1.0713 C   0  0  0  0  0  0  0  0  0  0  0  0
    3.6664    0.5041   -1.2827 C   0  0  0  0  0  0  0  0  0  0  0  0
    4.4522   -0.2511   -0.4345 C   0  0  0  0  0  0  0  0  0  0  0  0
    5.7797    0.1169   -0.2038 O   0  0  0  0  0  0  0  0  0  0  0  0
    3.7929   -1.1409    0.4046 C   0  0  0  0  0  0  0  0  0  0  0  0
    4.5215   -1.9751    1.2285 O   0  0  0  0  0  0  0  0  0  0  0  0
    2.4168   -1.0483    0.5439 C   0  0  0  0  0  0  0  0  0  0  0  0
   -2.8662    1.6261   -0.7085 C   0  0  0  0  0  0  0  0  0  0  0  0
  1  2  1  0  0  0  0
  2  3  2  0  0  0  0
  3  4  1  0  0  0  0
  4  5  1  0  0  0  0
  4  6  2  0  0  0  0
  6  7  1  0  0  0  0
  7  8  1  0  0  0  0
  7 18  2  0  0  0  0
  8  9  2  0  0  0  0
  9 10  1  0  0  0  0
 10 11  2  0  0  0  0
 11 12  1  0  0  0  0
 12 13  2  0  0  0  0
 13 14  1  0  0  0  0
 13 15  1  0  0  0  0
 15 16  1  0  0  0  0
 15 17  2  0  0  0  0
 17 10  1  0  0  0  0
 18  2  1  0  0  0  0
M  END
>  <zinc_id>
ZINC000000014036

>  <smiles>
Oc1cc(O)cc(/C=C/c2ccc(O)c(O)c2)c1

$$$$
