
 OpenBabel07162211283D

 25 26  0  0  0  0  0  0  0  0999 V2000
   -4.5976    2.5875   -0.6491 C   0  0  0  0  0  0  0  0  0  0  0  0
   -4.9666    1.3066   -1.1545 O   0  0  0  0  0  0  0  0  0  0  0  0
   -3.9483    0.3481   -1.1423 C   0  0  0  0  0  0  0  0  0  0  0  0
   -2.9853    0.2686   -2.1142 C   0  0  0  0  0  0  0  0  0  0  0  0
   -1.7136   -0.1913   -1.7961 C   0  0  0  0  0  0  0  0  0  0  0  0
   -1.4079   -0.7242   -0.5497 C   0  0  0  0  0  0  0  0  0  0  0  0
   -0.4702   -1.8577   -0.5625 C   0  0  0  0  0  0  0  0  0  0  0  0
    0.3758   -1.8671    0.4664 C   0  0  0  0  0  0  0  0  0  0  0  0
    1.1947   -0.6553    0.6141 C   0  0  0  0  0  0  0  0  0  0  0  0
    1.3632    0.2547   -0.4193 C   0  0  0  0  0  0  0  0  0  0  0  0
    2.5972    0.8443   -0.6684 C   0  0  0  0  0  0  0  0  0  0  0  0
    2.7867    1.7884   -1.6666 O   0  0  0  0  0  0  0  0  0  0  0  0
    3.3063    3.0628   -1.2972 C   0  0  0  0  0  0  0  0  0  0  0  0
    3.7275    0.4478    0.0341 C   0  0  0  0  0  0  0  0  0  0  0  0
    4.9481    0.2885   -0.6253 O   0  0  0  0  0  0  0  0  0  0  0  0
    5.3739   -0.9761   -1.1133 C   0  0  0  0  0  0  0  0  0  0  0  0
    3.4920   -0.1628    1.2612 C   0  0  0  0  0  0  0  0  0  0  0  0
    4.6402   -0.5452    1.9619 O   0  0  0  0  0  0  0  0  0  0  0  0
    5.6430    0.3517    2.3603 C   0  0  0  0  0  0  0  0  0  0  0  0
    2.2512   -0.7282    1.5138 C   0  0  0  0  0  0  0  0  0  0  0  0
   -2.4541   -0.7336    0.3665 C   0  0  0  0  0  0  0  0  0  0  0  0
   -3.7475   -0.3721    0.0145 C   0  0  0  0  0  0  0  0  0  0  0  0
   -4.8878   -0.7685    0.7856 N   0  3  0  0  0  0  0  0  0  0  0  0
   -5.3343   -1.9416    0.7046 O   0  0  0  0  0  0  0  0  0  0  0  0
   -5.1868   -0.0252    1.9129 O   0  5  0  0  0  0  0  0  0  0  0  0
  1  2  1  0  0  0  0
  2  3  1  0  0  0  0
  3  4  2  0  0  0  0
  4  5  1  0  0  0  0
  5  6  2  0  0  0  0
  6  7  1  0  0  0  0
  6 21  1  0  0  0  0
  7  8  2  0  0  0  0
  8  9  1  0  0  0  0
  9 10  2  0  0  0  0
 10 11  1  0  0  0  0
 11 12  1  0  0  0  0
 11 14  2  0  0  0  0
 12 13  1  0  0  0  0
 14 15  1  0  0  0  0
 14 17  1  0  0  0  0
 15 16  1  0  0  0  0
 17 18  1  0  0  0  0
 17 20  2  0  0  0  0
 18 19  1  0  0  0  0
 20  9  1  0  0  0  0
 21 22  2  0  0  0  0
 22 23  1  0  0  0  0
 22  3  1  0  0  0  0
 23 24  2  0  0  0  0
 23 25  1  0  0  0  0
M  CHG  2  23   1  25  -1
M  END
>  <zinc_id>
ZINC000013645654

>  <smiles>
COc1ccc(/C=C\c2cc(OC)c(OC)c(OC)c2)cc1[N+](=O)[O-]

$$$$
