
 OpenBabel07162211283D

 22 23  0  0  0  0  0  0  0  0999 V2000
    7.3717   -0.6280    0.2549 C   0  0  0  0  0  0  0  0  0  0  0  0
    6.5317    0.2986   -0.3903 O   0  0  0  0  0  0  0  0  0  0  0  0
    5.1689    0.4068   -0.1593 C   0  0  0  0  0  0  0  0  0  0  0  0
    4.4022    0.8670   -1.2217 C   0  0  0  0  0  0  0  0  0  0  0  0
    3.0392    0.7475   -1.1675 C   0  0  0  0  0  0  0  0  0  0  0  0
    2.4714   -0.0540   -0.1912 C   0  0  0  0  0  0  0  0  0  0  0  0
    1.0057   -0.1356   -0.2089 C   0  0  0  0  0  0  0  0  0  0  0  0
    0.3663    0.4270    0.8162 C   0  0  0  0  0  0  0  0  0  0  0  0
   -1.0988    0.3531    0.7573 C   0  0  0  0  0  0  0  0  0  0  0  0
   -1.7325   -0.8456    1.0594 C   0  0  0  0  0  0  0  0  0  0  0  0
   -2.9604   -1.1841    0.5079 C   0  0  0  0  0  0  0  0  0  0  0  0
   -3.6794   -2.2992    0.9467 O   0  0  0  0  0  0  0  0  0  0  0  0
   -3.5371   -2.6883    2.3110 C   0  0  0  0  0  0  0  0  0  0  0  0
   -3.5345   -0.2524   -0.3449 C   0  0  0  0  0  0  0  0  0  0  0  0
   -4.5494   -0.6528   -1.1857 O   0  0  0  0  0  0  0  0  0  0  0  0
   -4.3322   -1.4598   -2.3400 C   0  0  0  0  0  0  0  0  0  0  0  0
   -3.0365    1.0334   -0.4541 C   0  0  0  0  0  0  0  0  0  0  0  0
   -3.9050    2.0727   -0.7937 O   0  0  0  0  0  0  0  0  0  0  0  0
   -3.9440    3.2956   -0.1030 C   0  0  0  0  0  0  0  0  0  0  0  0
   -1.7954    1.3465    0.0812 C   0  0  0  0  0  0  0  0  0  0  0  0
    3.2064   -0.5048    0.8957 C   0  0  0  0  0  0  0  0  0  0  0  0
    4.5415   -0.1436    0.9301 C   0  0  0  0  0  0  0  0  0  0  0  0
  1  2  1  0  0  0  0
  2  3  1  0  0  0  0
  3  4  2  0  0  0  0
  4  5  1  0  0  0  0
  5  6  2  0  0  0  0
  6  7  1  0  0  0  0
  6 21  1  0  0  0  0
  7  8  2  0  0  0  0
  8  9  1  0  0  0  0
  9 10  2  0  0  0  0
 10 11  1  0  0  0  0
 11 12  1  0  0  0  0
 11 14  2  0  0  0  0
 12 13  1  0  0  0  0
 14 15  1  0  0  0  0
 14 17  1  0  0  0  0
 15 16  1  0  0  0  0
 17 18  1  0  0  0  0
 17 20  2  0  0  0  0
 18 19  1  0  0  0  0
 20  9  1  0  0  0  0
 21 22  2  0  0  0  0
 22  3  1  0  0  0  0
M  END
>  <zinc_id>
ZINC000013823937

>  <smiles>
COc1ccc(/C=C/c2cc(OC)c(OC)c(OC)c2)cc1

$$$$
