
 OpenBabel07162211283D

 18 19  0  0  0  0  0  0  0  0999 V2000
    4.4647    2.4167    0.5561 O   0  0  0  0  0  0  0  0  0  0  0  0
    4.1714    1.0805    0.2711 C   0  0  0  0  0  0  0  0  0  0  0  0
    3.2738    0.8080   -0.7532 C   0  0  0  0  0  0  0  0  0  0  0  0
    2.5216   -0.3601   -0.7053 C   0  0  0  0  0  0  0  0  0  0  0  0
    2.3671   -1.0849    0.4709 C   0  0  0  0  0  0  0  0  0  0  0  0
    1.0456   -1.4169    1.0231 C   0  0  0  0  0  0  0  0  0  0  0  0
   -0.0376   -1.5666    0.3183 C   0  0  0  0  0  0  0  0  0  0  0  0
   -1.3320   -0.9317    0.6052 C   0  0  0  0  0  0  0  0  0  0  0  0
   -2.4743   -1.5786    0.1462 C   0  0  0  0  0  0  0  0  0  0  0  0
   -3.5264   -0.8556   -0.4053 C   0  0  0  0  0  0  0  0  0  0  0  0
   -4.6808   -1.4707   -0.8738 O   0  0  0  0  0  0  0  0  0  0  0  0
   -3.4526    0.5214   -0.5695 C   0  0  0  0  0  0  0  0  0  0  0  0
   -3.9459    1.0791   -1.7549 O   0  0  0  0  0  0  0  0  0  0  0  0
   -2.3906    1.1837    0.0315 C   0  0  0  0  0  0  0  0  0  0  0  0
   -2.3062    2.5748   -0.0738 O   0  0  0  0  0  0  0  0  0  0  0  0
   -1.4646    0.4423    0.7531 C   0  0  0  0  0  0  0  0  0  0  0  0
    3.3972   -0.9088    1.3878 C   0  0  0  0  0  0  0  0  0  0  0  0
    4.3700    0.0677    1.2016 C   0  0  0  0  0  0  0  0  0  0  0  0
  1  2  1  0  0  0  0
  2  3  2  0  0  0  0
  3  4  1  0  0  0  0
  4  5  2  0  0  0  0
  5  6  1  0  0  0  0
  5 17  1  0  0  0  0
  6  7  2  0  0  0  0
  7  8  1  0  0  0  0
  8  9  2  0  0  0  0
  9 10  1  0  0  0  0
 10 11  1  0  0  0  0
 10 12  2  0  0  0  0
 12 13  1  0  0  0  0
 12 14  1  0  0  0  0
 14 15  1  0  0  0  0
 14 16  2  0  0  0  0
 16  8  1  0  0  0  0
 17 18  2  0  0  0  0
 18  2  1  0  0  0  0
M  END
>  <zinc_id>
ZINC000014505445

>  <smiles>
Oc1ccc(/C=C/c2cc(O)c(O)c(O)c2)cc1

$$$$
