
 OpenBabel07162211283D

 27 29  0  0  0  0  0  0  0  0999 V2000
   -3.8228    0.2164   -3.9242 C   0  0  0  0  0  0  0  0  0  0  0  0
   -3.3571   -0.6699   -2.9376 O   0  0  0  0  0  0  0  0  0  0  0  0
   -2.9154   -0.2591   -1.6972 C   0  0  0  0  0  0  0  0  0  0  0  0
   -1.7251    0.4403   -1.6233 C   0  0  0  0  0  0  0  0  0  0  0  0
   -1.3521    1.0708   -0.4651 C   0  0  0  0  0  0  0  0  0  0  0  0
    0.0672    1.3481   -0.2288 C   0  0  0  0  0  0  0  0  0  0  0  0
    0.8143    0.5787    0.5477 C   0  0  0  0  0  0  0  0  0  0  0  0
    0.1537   -0.3217    1.3651 O   0  0  0  0  0  0  0  0  0  0  0  0
    0.2149   -1.6904    1.0965 C   0  0  0  0  0  0  0  0  0  0  0  0
   -0.0623   -2.6815    2.1655 C   0  0  0  0  0  0  0  0  0  0  0  0
    0.3832   -2.0876   -0.0838 O   0  0  0  0  0  0  0  0  0  0  0  0
    2.2544    0.7080    0.4814 C   0  0  0  0  0  0  0  0  0  0  0  0
    2.9590    1.8104    0.9128 C   0  0  0  0  0  0  0  0  0  0  0  0
    4.3336    1.6885    1.0801 C   0  0  0  0  0  0  0  0  0  0  0  0
    5.0284    0.5917    0.6141 C   0  0  0  0  0  0  0  0  0  0  0  0
    4.3288   -0.2958   -0.1868 C   0  0  0  0  0  0  0  0  0  0  0  0
    2.9665   -0.3786    0.0214 C   0  0  0  0  0  0  0  0  0  0  0  0
    5.2147   -0.9100   -1.0750 O   0  0  0  0  0  0  0  0  0  0  0  0
    6.5167   -0.5257   -0.6635 C   0  0  0  0  0  0  0  0  0  0  0  0
    6.3465    0.1735    0.5682 O   0  0  0  0  0  0  0  0  0  0  0  0
   -2.1988    0.9932    0.6094 C   0  0  0  0  0  0  0  0  0  0  0  0
   -3.2797    0.1204    0.6247 C   0  0  0  0  0  0  0  0  0  0  0  0
   -4.1380    0.0396    1.7169 O   0  0  0  0  0  0  0  0  0  0  0  0
   -3.7259   -0.5193    2.9478 C   0  0  0  0  0  0  0  0  0  0  0  0
   -3.7643   -0.2562   -0.6120 C   0  0  0  0  0  0  0  0  0  0  0  0
   -5.0454   -0.7370   -0.7772 O   0  0  0  0  0  0  0  0  0  0  0  0
   -6.1951    0.0487   -0.4771 C   0  0  0  0  0  0  0  0  0  0  0  0
  1  2  1  0  0  0  0
  2  3  1  0  0  0  0
  3  4  2  0  0  0  0
  4  5  1  0  0  0  0
  5  6  1  0  0  0  0
  5 21  2  0  0  0  0
  6  7  2  0  0  0  0
  7  8  1  0  0  0  0
  7 12  1  0  0  0  0
  8  9  1  0  0  0  0
  9 10  1  0  0  0  0
  9 11  2  0  0  0  0
 12 13  2  0  0  0  0
 13 14  1  0  0  0  0
 14 15  2  0  0  0  0
 15 16  1  0  0  0  0
 16 17  2  0  0  0  0
 16 18  1  0  0  0  0
 17 12  1  0  0  0  0
 18 19  1  0  0  0  0
 19 20  1  0  0  0  0
 20 15  1  0  0  0  0
 21 22  1  0  0  0  0
 22 23  1  0  0  0  0
 22 25  2  0  0  0  0
 23 24  1  0  0  0  0
 25 26  1  0  0  0  0
 25  3  1  0  0  0  0
 26 27  1  0  0  0  0
M  END
>  <zinc_id>
ZINC000016958094

>  <smiles>
COc1cc(/C=C(\OC(C)=O)c2ccc3c(c2)OCO3)cc(OC)c1OC

$$$$
