
 OpenBabel07162211283D

 22 24  0  0  0  0  0  0  0  0999 V2000
   -1.9985    2.4846   -1.1871 C   0  0  0  0  0  0  0  0  0  0  0  0
   -2.9006    1.5131   -1.7155 O   0  0  0  0  0  0  0  0  0  0  0  0
   -2.9379    0.2556   -1.1055 C   0  0  0  0  0  0  0  0  0  0  0  0
   -1.8985   -0.6418   -1.1563 C   0  0  0  0  0  0  0  0  0  0  0  0
   -1.5136   -1.3989   -0.0545 C   0  0  0  0  0  0  0  0  0  0  0  0
   -0.1092   -1.7832    0.1484 C   0  0  0  0  0  0  0  0  0  0  0  0
    0.7696   -1.0231    0.7556 C   0  0  0  0  0  0  0  0  0  0  0  0
    2.0391   -0.5915    0.1587 C   0  0  0  0  0  0  0  0  0  0  0  0
    2.0721    0.7486   -0.2117 C   0  0  0  0  0  0  0  0  0  0  0  0
    3.1994    1.3156   -0.7488 C   0  0  0  0  0  0  0  0  0  0  0  0
    4.4240    0.7502   -0.4519 C   0  0  0  0  0  0  0  0  0  0  0  0
    5.5729    1.5397   -0.3972 O   0  0  0  0  0  0  0  0  0  0  0  0
    5.7758    2.4500    0.6809 C   0  0  0  0  0  0  0  0  0  0  0  0
    4.4177   -0.5432    0.0568 C   0  0  0  0  0  0  0  0  0  0  0  0
    5.6574   -1.1682    0.1692 O   0  0  0  0  0  0  0  0  0  0  0  0
    3.2570   -1.1271    0.5486 C   0  0  0  0  0  0  0  0  0  0  0  0
   -2.4412   -1.4747    0.9790 C   0  0  0  0  0  0  0  0  0  0  0  0
   -3.7346   -1.0077    0.7736 C   0  0  0  0  0  0  0  0  0  0  0  0
   -3.8282    0.1077   -0.0501 C   0  0  0  0  0  0  0  0  0  0  0  0
   -5.0513    0.7339    0.1595 O   0  0  0  0  0  0  0  0  0  0  0  0
   -5.8720   -0.1476    0.9219 C   0  0  0  0  0  0  0  0  0  0  0  0
   -4.8992   -0.9919    1.5321 O   0  0  0  0  0  0  0  0  0  0  0  0
  1  2  1  0  0  0  0
  2  3  1  0  0  0  0
  3  4  2  0  0  0  0
  4  5  1  0  0  0  0
  5  6  1  0  0  0  0
  5 17  2  0  0  0  0
  6  7  2  0  0  0  0
  7  8  1  0  0  0  0
  8  9  2  0  0  0  0
  9 10  1  0  0  0  0
 10 11  2  0  0  0  0
 11 12  1  0  0  0  0
 11 14  1  0  0  0  0
 12 13  1  0  0  0  0
 14 15  1  0  0  0  0
 14 16  2  0  0  0  0
 16  8  1  0  0  0  0
 17 18  1  0  0  0  0
 18 19  2  0  0  0  0
 19 20  1  0  0  0  0
 19  3  1  0  0  0  0
 20 21  1  0  0  0  0
 21 22  1  0  0  0  0
 22 18  1  0  0  0  0
M  END
>  <zinc_id>
ZINC000017175933

>  <smiles>
COc1ccc(/C=C/c2cc(OC)c3c(c2)OCO3)cc1O

$$$$
