
 OpenBabel07162211283D

 24 26  0  0  0  0  0  0  0  0999 V2000
   -1.8793    3.3834   -0.1638 C   0  0  0  0  0  0  0  0  0  0  0  0
   -2.5638    2.3742   -0.8660 O   0  0  0  0  0  0  0  0  0  0  0  0
   -2.3619    1.0191   -0.6754 C   0  0  0  0  0  0  0  0  0  0  0  0
   -1.1918    0.3778   -1.0655 C   0  0  0  0  0  0  0  0  0  0  0  0
   -0.8230   -0.8435   -0.5139 C   0  0  0  0  0  0  0  0  0  0  0  0
    0.1153   -1.7505   -1.1896 C   0  0  0  0  0  0  0  0  0  0  0  0
    1.1512   -2.1430   -0.4459 C   0  0  0  0  0  0  0  0  0  0  0  0
    1.7479   -3.5099   -0.5794 C   0  0  0  0  0  0  0  0  0  0  0  0
    1.9562   -1.0659    0.0885 C   0  0  0  0  0  0  0  0  0  0  0  0
    1.4968   -0.0130    0.8234 C   0  0  0  0  0  0  0  0  0  0  0  0
    2.2720    1.1403    0.8510 C   0  0  0  0  0  0  0  0  0  0  0  0
    3.5620    1.1695    0.3356 C   0  0  0  0  0  0  0  0  0  0  0  0
    4.1535   -0.0379    0.0740 C   0  0  0  0  0  0  0  0  0  0  0  0
    3.3259   -1.1335   -0.1371 C   0  0  0  0  0  0  0  0  0  0  0  0
    5.5270    0.0575    0.0277 O   0  0  0  0  0  0  0  0  0  0  0  0
    5.8234    1.4502   -0.0249 C   0  0  0  0  0  0  0  0  0  0  0  0
    4.6170    2.0813    0.3967 O   0  0  0  0  0  0  0  0  0  0  0  0
   -1.8243   -1.4748    0.2170 C   0  0  0  0  0  0  0  0  0  0  0  0
   -3.0912   -0.9824    0.3538 C   0  0  0  0  0  0  0  0  0  0  0  0
   -4.1772   -1.7215    0.8089 O   0  0  0  0  0  0  0  0  0  0  0  0
   -5.3541   -1.6762    0.0055 C   0  0  0  0  0  0  0  0  0  0  0  0
   -3.2954    0.3574    0.1129 C   0  0  0  0  0  0  0  0  0  0  0  0
   -4.5185    0.9811    0.3727 O   0  0  0  0  0  0  0  0  0  0  0  0
   -4.6676    1.9603    1.3903 C   0  0  0  0  0  0  0  0  0  0  0  0
  1  2  1  0  0  0  0
  2  3  1  0  0  0  0
  3  4  2  0  0  0  0
  4  5  1  0  0  0  0
  5  6  1  0  0  0  0
  5 18  2  0  0  0  0
  6  7  2  0  0  0  0
  7  8  1  0  0  0  0
  7  9  1  0  0  0  0
  9 10  2  0  0  0  0
 10 11  1  0  0  0  0
 11 12  2  0  0  0  0
 12 13  1  0  0  0  0
 13 14  2  0  0  0  0
 13 15  1  0  0  0  0
 14  9  1  0  0  0  0
 15 16  1  0  0  0  0
 16 17  1  0  0  0  0
 17 12  1  0  0  0  0
 18 19  1  0  0  0  0
 19 20  1  0  0  0  0
 19 22  2  0  0  0  0
 20 21  1  0  0  0  0
 22 23  1  0  0  0  0
 22  3  1  0  0  0  0
 23 24  1  0  0  0  0
M  END
>  <zinc_id>
ZINC000017215903

>  <smiles>
COc1cc(/C=C(/C)c2ccc3c(c2)OCO3)cc(OC)c1OC

$$$$
