
 OpenBabel07162211283D

 25 26  0  0  0  0  0  0  0  0999 V2000
    6.5783    0.3802   -1.2998 C   0  0  0  0  0  0  0  0  0  0  0  0
    5.6766    1.1976   -0.5885 O   0  0  0  0  0  0  0  0  0  0  0  0
    4.4056    0.7774   -0.2514 C   0  0  0  0  0  0  0  0  0  0  0  0
    3.3614    0.7169   -1.1557 C   0  0  0  0  0  0  0  0  0  0  0  0
    2.2280   -0.0402   -0.8864 C   0  0  0  0  0  0  0  0  0  0  0  0
    1.9562   -0.4144    0.4242 C   0  0  0  0  0  0  0  0  0  0  0  0
    0.9782   -1.4630    0.7432 C   0  0  0  0  0  0  0  0  0  0  0  0
   -0.1606   -1.0182    1.2787 C   0  0  0  0  0  0  0  0  0  0  0  0
   -0.8622   -0.0139    0.4677 C   0  0  0  0  0  0  0  0  0  0  0  0
   -1.4111   -0.3564   -0.7572 C   0  0  0  0  0  0  0  0  0  0  0  0
   -2.6035    0.1371   -1.2208 C   0  0  0  0  0  0  0  0  0  0  0  0
   -3.3645   -0.5366   -2.1827 O   0  0  0  0  0  0  0  0  0  0  0  0
   -3.9707   -1.7459   -1.7414 C   0  0  0  0  0  0  0  0  0  0  0  0
   -3.2331    1.1403   -0.4938 C   0  0  0  0  0  0  0  0  0  0  0  0
   -4.6120    1.3142   -0.6516 O   0  0  0  0  0  0  0  0  0  0  0  0
   -5.1032    2.4472   -1.3630 C   0  0  0  0  0  0  0  0  0  0  0  0
   -2.6462    1.6187    0.6722 C   0  0  0  0  0  0  0  0  0  0  0  0
   -3.4214    2.4427    1.4938 O   0  0  0  0  0  0  0  0  0  0  0  0
   -4.2810    1.8446    2.4483 C   0  0  0  0  0  0  0  0  0  0  0  0
   -1.5441    0.9660    1.1788 C   0  0  0  0  0  0  0  0  0  0  0  0
    1.4436   -2.7313    1.2195 N   0  3  0  0  0  0  0  0  0  0  0  0
    2.6710   -2.9179    1.4131 O   0  0  0  0  0  0  0  0  0  0  0  0
    0.7342   -3.8323    0.7999 O   0  5  0  0  0  0  0  0  0  0  0  0
    3.0257   -0.3200    1.3055 C   0  0  0  0  0  0  0  0  0  0  0  0
    4.1547    0.4072    1.0633 C   0  0  0  0  0  0  0  0  0  0  0  0
  1  2  1  0  0  0  0
  2  3  1  0  0  0  0
  3  4  2  0  0  0  0
  4  5  1  0  0  0  0
  5  6  2  0  0  0  0
  6  7  1  0  0  0  0
  6 24  1  0  0  0  0
  7  8  2  0  0  0  0
  7 21  1  0  0  0  0
  8  9  1  0  0  0  0
  9 10  2  0  0  0  0
 10 11  1  0  0  0  0
 11 12  1  0  0  0  0
 11 14  2  0  0  0  0
 12 13  1  0  0  0  0
 14 15  1  0  0  0  0
 14 17  1  0  0  0  0
 15 16  1  0  0  0  0
 17 18  1  0  0  0  0
 17 20  2  0  0  0  0
 18 19  1  0  0  0  0
 20  9  1  0  0  0  0
 21 22  2  0  0  0  0
 21 23  1  0  0  0  0
 24 25  2  0  0  0  0
 25  3  1  0  0  0  0
M  CHG  2  21   1  23  -1
M  END
>  <zinc_id>
ZINC000017299990

>  <smiles>
COc1ccc(/C(=C\c2cc(OC)c(OC)c(OC)c2)[N+](=O)[O-])cc1

$$$$
