
 OpenBabel07162211283D

 26 28  0  0  0  0  0  0  0  0999 V2000
   -6.3394    1.4791    0.8645 C   0  0  0  0  0  0  0  0  0  0  0  0
   -4.9894    1.7189    1.2470 O   0  0  0  0  0  0  0  0  0  0  0  0
   -4.1050    0.6409    1.1375 C   0  0  0  0  0  0  0  0  0  0  0  0
   -3.1016    0.5142    2.0910 C   0  0  0  0  0  0  0  0  0  0  0  0
   -1.9971   -0.2452    1.7290 C   0  0  0  0  0  0  0  0  0  0  0  0
   -2.1773   -1.2507    0.8200 C   0  0  0  0  0  0  0  0  0  0  0  0
   -1.0483   -1.9923    0.2421 C   0  0  0  0  0  0  0  0  0  0  0  0
   -0.0738   -1.3670   -0.4072 C   0  0  0  0  0  0  0  0  0  0  0  0
    0.7178   -0.3095    0.2340 C   0  0  0  0  0  0  0  0  0  0  0  0
    1.7472   -0.5916    1.1200 C   0  0  0  0  0  0  0  0  0  0  0  0
    2.9551    0.0934    1.0812 C   0  0  0  0  0  0  0  0  0  0  0  0
    4.1462   -0.4715    1.5349 O   0  0  0  0  0  0  0  0  0  0  0  0
    4.9788   -1.0573    0.5384 C   0  0  0  0  0  0  0  0  0  0  0  0
    2.9807    1.3438    0.4773 C   0  0  0  0  0  0  0  0  0  0  0  0
    4.1501    2.1034    0.5672 O   0  0  0  0  0  0  0  0  0  0  0  0
    4.1555    3.5109    0.5810 C   0  0  0  0  0  0  0  0  0  0  0  0
    1.9932    1.6425   -0.4547 C   0  0  0  0  0  0  0  0  0  0  0  0
    2.1589    2.7391   -1.3050 O   0  0  0  0  0  0  0  0  0  0  0  0
    1.1282    2.9806   -2.2591 C   0  0  0  0  0  0  0  0  0  0  0  0
    0.8210    0.8964   -0.4425 C   0  0  0  0  0  0  0  0  0  0  0  0
    0.3793   -2.1969   -1.5307 C   0  0  0  0  0  0  0  0  0  0  0  0
    1.2241   -1.8704   -2.4164 O   0  0  0  0  0  0  0  0  0  0  0  0
   -0.7427   -3.1625   -1.7492 C   0  0  0  0  0  0  0  0  0  0  0  0
   -1.2041   -3.3707   -0.3118 C   0  0  0  0  0  0  0  0  0  0  0  0
   -3.4322   -1.4205    0.2474 C   0  0  0  0  0  0  0  0  0  0  0  0
   -4.3253   -0.3571    0.1956 C   0  0  0  0  0  0  0  0  0  0  0  0
  1  2  1  0  0  0  0
  2  3  1  0  0  0  0
  3  4  2  0  0  0  0
  4  5  1  0  0  0  0
  5  6  2  0  0  0  0
  6  7  1  0  0  0  0
  6 25  1  0  0  0  0
  7  8  2  0  0  0  0
  8  9  1  0  0  0  0
  8 21  1  0  0  0  0
  9 10  2  0  0  0  0
 10 11  1  0  0  0  0
 11 12  1  0  0  0  0
 11 14  2  0  0  0  0
 12 13  1  0  0  0  0
 14 15  1  0  0  0  0
 14 17  1  0  0  0  0
 15 16  1  0  0  0  0
 17 18  1  0  0  0  0
 17 20  2  0  0  0  0
 18 19  1  0  0  0  0
 20  9  1  0  0  0  0
 21 22  2  0  0  0  0
 21 23  1  0  0  0  0
 23 24  1  0  0  0  0
 24  7  1  0  0  0  0
 25 26  2  0  0  0  0
 26  3  1  0  0  0  0
M  END
>  <zinc_id>
ZINC000026144365

>  <smiles>
COc1ccc(C2=C(c3cc(OC)c(OC)c(OC)c3)C(=O)CC2)cc1

$$$$
