
 OpenBabel07162211283D

 26 27  0  0  0  0  0  0  0  0999 V2000
    4.9433   -2.6989    0.6881 C   0  0  0  0  0  0  0  0  0  0  0  0
    3.8314   -2.4212   -0.1485 O   0  0  0  0  0  0  0  0  0  0  0  0
    3.4830   -1.0833   -0.3430 C   0  0  0  0  0  0  0  0  0  0  0  0
    2.1426   -0.7512   -0.2415 C   0  0  0  0  0  0  0  0  0  0  0  0
    1.7645    0.5788   -0.2390 C   0  0  0  0  0  0  0  0  0  0  0  0
    0.4250    1.0215    0.0927 C   0  0  0  0  0  0  0  0  0  0  0  0
   -0.3804    0.4136    0.9392 C   0  0  0  0  0  0  0  0  0  0  0  0
   -1.7997    0.2032    0.6656 C   0  0  0  0  0  0  0  0  0  0  0  0
   -2.7070    1.2245    0.5205 C   0  0  0  0  0  0  0  0  0  0  0  0
   -4.0671    0.9745    0.3829 C   0  0  0  0  0  0  0  0  0  0  0  0
   -5.0125    1.9762    0.4389 O   0  0  0  0  0  0  0  0  0  0  0  0
   -5.6138    2.5600   -0.7076 C   0  0  0  0  0  0  0  0  0  0  0  0
   -4.5352   -0.3336    0.4115 C   0  0  0  0  0  0  0  0  0  0  0  0
   -5.7470   -0.6729    1.0195 O   0  0  0  0  0  0  0  0  0  0  0  0
   -5.7763   -1.4771    2.1952 C   0  0  0  0  0  0  0  0  0  0  0  0
   -3.5665   -1.3285    0.4285 C   0  0  0  0  0  0  0  0  0  0  0  0
   -4.0253   -2.6216    0.1953 O   0  0  0  0  0  0  0  0  0  0  0  0
   -4.2800   -3.0332   -1.1262 C   0  0  0  0  0  0  0  0  0  0  0  0
   -2.2200   -1.0476    0.2343 C   0  0  0  0  0  0  0  0  0  0  0  0
    2.7426    1.5107   -0.5648 C   0  0  0  0  0  0  0  0  0  0  0  0
    4.0890    1.1988   -0.4253 C   0  0  0  0  0  0  0  0  0  0  0  0
    5.0353    2.1931   -0.1575 O   0  0  0  0  0  0  0  0  0  0  0  0
    4.6457    3.5127    0.2124 C   0  0  0  0  0  0  0  0  0  0  0  0
    4.4782   -0.1206   -0.2415 C   0  0  0  0  0  0  0  0  0  0  0  0
    5.6512   -0.4198    0.4586 O   0  0  0  0  0  0  0  0  0  0  0  0
    6.4992    0.6418    0.8859 C   0  0  0  0  0  0  0  0  0  0  0  0
  1  2  1  0  0  0  0
  2  3  1  0  0  0  0
  3  4  2  0  0  0  0
  4  5  1  0  0  0  0
  5  6  1  0  0  0  0
  5 20  2  0  0  0  0
  6  7  2  0  0  0  0
  7  8  1  0  0  0  0
  8  9  2  0  0  0  0
  9 10  1  0  0  0  0
 10 11  1  0  0  0  0
 10 13  2  0  0  0  0
 11 12  1  0  0  0  0
 13 14  1  0  0  0  0
 13 16  1  0  0  0  0
 14 15  1  0  0  0  0
 16 17  1  0  0  0  0
 16 19  2  0  0  0  0
 17 18  1  0  0  0  0
 19  8  1  0  0  0  0
 20 21  1  0  0  0  0
 21 22  1  0  0  0  0
 21 24  2  0  0  0  0
 22 23  1  0  0  0  0
 24 25  1  0  0  0  0
 24  3  1  0  0  0  0
 25 26  1  0  0  0  0
M  END
>  <zinc_id>
ZINC000026577097

>  <smiles>
COc1cc(/C=C/c2cc(OC)c(OC)c(OC)c2)cc(OC)c1OC

$$$$
