
 OpenBabel07162211283D

 19 20  0  0  0  0  0  0  0  0999 V2000
    4.7064   -1.6735    1.1628 C   0  0  0  0  0  0  0  0  0  0  0  0
    4.9819   -0.3473    0.7287 O   0  0  0  0  0  0  0  0  0  0  0  0
    4.0426    0.3574   -0.0306 C   0  0  0  0  0  0  0  0  0  0  0  0
    3.5417   -0.1950   -1.2034 C   0  0  0  0  0  0  0  0  0  0  0  0
    2.2312    0.0167   -1.6149 C   0  0  0  0  0  0  0  0  0  0  0  0
    1.3315    0.6174   -0.7437 C   0  0  0  0  0  0  0  0  0  0  0  0
   -0.0439    0.1311   -0.5821 C   0  0  0  0  0  0  0  0  0  0  0  0
   -0.5569   -0.1328    0.6200 C   0  0  0  0  0  0  0  0  0  0  0  0
   -1.9962   -0.3073    0.8054 C   0  0  0  0  0  0  0  0  0  0  0  0
   -2.8766    0.7609    0.8867 C   0  0  0  0  0  0  0  0  0  0  0  0
   -4.0561    0.7332    0.1512 C   0  0  0  0  0  0  0  0  0  0  0  0
   -4.8892    1.8335    0.0451 O   0  0  0  0  0  0  0  0  0  0  0  0
   -4.5785   -0.4995   -0.2000 C   0  0  0  0  0  0  0  0  0  0  0  0
   -3.8563   -1.6432    0.1109 C   0  0  0  0  0  0  0  0  0  0  0  0
   -4.3299   -2.8512   -0.4122 O   0  0  0  0  0  0  0  0  0  0  0  0
   -2.5938   -1.5571    0.6866 C   0  0  0  0  0  0  0  0  0  0  0  0
    1.9100    1.4495    0.2073 C   0  0  0  0  0  0  0  0  0  0  0  0
    3.2569    1.3528    0.5369 C   0  0  0  0  0  0  0  0  0  0  0  0
    3.7752    1.9544    1.6759 O   0  0  0  0  0  0  0  0  0  0  0  0
  1  2  1  0  0  0  0
  2  3  1  0  0  0  0
  3  4  2  0  0  0  0
  4  5  1  0  0  0  0
  5  6  2  0  0  0  0
  6  7  1  0  0  0  0
  6 17  1  0  0  0  0
  7  8  2  0  0  0  0
  8  9  1  0  0  0  0
  9 10  2  0  0  0  0
 10 11  1  0  0  0  0
 11 12  1  0  0  0  0
 11 13  2  0  0  0  0
 13 14  1  0  0  0  0
 14 15  1  0  0  0  0
 14 16  2  0  0  0  0
 16  9  1  0  0  0  0
 17 18  2  0  0  0  0
 18 19  1  0  0  0  0
 18  3  1  0  0  0  0
M  END
>  <zinc_id>
ZINC000026981407

>  <smiles>
COc1ccc(/C=C/c2cc(O)cc(O)c2)cc1O

$$$$
