
 OpenBabel07162211283D

 24 25  0  0  0  0  0  0  0  0999 V2000
   -3.3496    2.2581   -2.3500 C   0  0  0  0  0  0  0  0  0  0  0  0
   -4.1812    1.6397   -1.3736 O   0  0  0  0  0  0  0  0  0  0  0  0
   -3.6073    0.7783   -0.4371 C   0  0  0  0  0  0  0  0  0  0  0  0
   -2.3025    1.0474   -0.0747 C   0  0  0  0  0  0  0  0  0  0  0  0
   -1.6132    0.1147    0.6661 C   0  0  0  0  0  0  0  0  0  0  0  0
   -1.9118   -1.2150    0.3931 C   0  0  0  0  0  0  0  0  0  0  0  0
   -1.0020   -2.3022    0.7351 C   0  0  0  0  0  0  0  0  0  0  0  0
    0.2447   -2.1746    0.3356 C   0  0  0  0  0  0  0  0  0  0  0  0
    0.9084   -0.8686    0.2306 C   0  0  0  0  0  0  0  0  0  0  0  0
    1.6080   -0.6423   -0.9497 C   0  0  0  0  0  0  0  0  0  0  0  0
    2.7158    0.1949   -0.9991 C   0  0  0  0  0  0  0  0  0  0  0  0
    3.6450    0.1201   -2.0417 O   0  0  0  0  0  0  0  0  0  0  0  0
    3.4524    0.7174   -3.2968 C   0  0  0  0  0  0  0  0  0  0  0  0
    3.1668    0.8173    0.1577 C   0  0  0  0  0  0  0  0  0  0  0  0
    4.4376    1.3884    0.2481 O   0  0  0  0  0  0  0  0  0  0  0  0
    5.5203    0.4693    0.3192 C   0  0  0  0  0  0  0  0  0  0  0  0
    2.3903    0.6569    1.2936 C   0  0  0  0  0  0  0  0  0  0  0  0
    2.5176    1.5848    2.3148 O   0  0  0  0  0  0  0  0  0  0  0  0
    2.4014    1.2808    3.6812 C   0  0  0  0  0  0  0  0  0  0  0  0
    1.5593   -0.4487    1.3854 C   0  0  0  0  0  0  0  0  0  0  0  0
   -3.2594   -1.4812    0.1793 C   0  0  0  0  0  0  0  0  0  0  0  0
   -3.7910   -2.7524    0.3741 O   0  0  0  0  0  0  0  0  0  0  0  0
   -4.1400   -0.4554   -0.1384 C   0  0  0  0  0  0  0  0  0  0  0  0
   -5.4096   -0.7275   -0.6530 O   0  0  0  0  0  0  0  0  0  0  0  0
  1  2  1  0  0  0  0
  2  3  1  0  0  0  0
  3  4  2  0  0  0  0
  4  5  1  0  0  0  0
  5  6  2  0  0  0  0
  6  7  1  0  0  0  0
  6 21  1  0  0  0  0
  7  8  2  0  0  0  0
  8  9  1  0  0  0  0
  9 10  2  0  0  0  0
 10 11  1  0  0  0  0
 11 12  1  0  0  0  0
 11 14  2  0  0  0  0
 12 13  1  0  0  0  0
 14 15  1  0  0  0  0
 14 17  1  0  0  0  0
 15 16  1  0  0  0  0
 17 18  1  0  0  0  0
 17 20  2  0  0  0  0
 18 19  1  0  0  0  0
 20  9  1  0  0  0  0
 21 22  1  0  0  0  0
 21 23  2  0  0  0  0
 23 24  1  0  0  0  0
 23  3  1  0  0  0  0
M  END
>  <zinc_id>
ZINC000000024632

>  <smiles>
COc1ccc(/C=C\c2cc(OC)c(OC)c(OC)c2)c(O)c1O

$$$$
