
 OpenBabel07162211283D

 20 21  0  0  0  0  0  0  0  0999 V2000
   -2.5676    3.7456   -0.2150 C   0  0  0  0  0  0  0  0  0  0  0  0
   -3.1373    2.6226    0.4205 O   0  0  0  0  0  0  0  0  0  0  0  0
   -3.1791    1.4008   -0.2625 C   0  0  0  0  0  0  0  0  0  0  0  0
   -2.0483    1.0462   -0.9575 C   0  0  0  0  0  0  0  0  0  0  0  0
   -1.6848   -0.2611   -1.2133 C   0  0  0  0  0  0  0  0  0  0  0  0
   -0.2970   -0.6438   -1.5076 C   0  0  0  0  0  0  0  0  0  0  0  0
    0.6306   -0.0240   -0.8160 C   0  0  0  0  0  0  0  0  0  0  0  0
    1.9614   -0.5916   -0.5606 C   0  0  0  0  0  0  0  0  0  0  0  0
    2.2059   -1.3124    0.6015 C   0  0  0  0  0  0  0  0  0  0  0  0
    3.4225   -1.2377    1.2682 C   0  0  0  0  0  0  0  0  0  0  0  0
    4.3902   -0.3606    0.8519 C   0  0  0  0  0  0  0  0  0  0  0  0
    5.2220    0.2879    1.7668 O   0  0  0  0  0  0  0  0  0  0  0  0
    4.2582    0.1843   -0.4172 C   0  0  0  0  0  0  0  0  0  0  0  0
    5.3222    0.8693   -0.9898 O   0  0  0  0  0  0  0  0  0  0  0  0
    3.0616    0.0534   -1.1113 C   0  0  0  0  0  0  0  0  0  0  0  0
   -2.4650   -1.2524   -0.6350 C   0  0  0  0  0  0  0  0  0  0  0  0
   -3.5695   -0.9649    0.1377 C   0  0  0  0  0  0  0  0  0  0  0  0
   -4.1461   -1.9078    0.9959 O   0  0  0  0  0  0  0  0  0  0  0  0
   -3.5187   -2.0269    2.2694 C   0  0  0  0  0  0  0  0  0  0  0  0
   -3.8612    0.3730    0.3739 C   0  0  0  0  0  0  0  0  0  0  0  0
  1  2  1  0  0  0  0
  2  3  1  0  0  0  0
  3  4  2  0  0  0  0
  4  5  1  0  0  0  0
  5  6  1  0  0  0  0
  5 16  2  0  0  0  0
  6  7  2  0  0  0  0
  7  8  1  0  0  0  0
  8  9  2  0  0  0  0
  9 10  1  0  0  0  0
 10 11  2  0  0  0  0
 11 12  1  0  0  0  0
 11 13  1  0  0  0  0
 13 14  1  0  0  0  0
 13 15  2  0  0  0  0
 15  8  1  0  0  0  0
 16 17  1  0  0  0  0
 17 18  1  0  0  0  0
 17 20  2  0  0  0  0
 18 19  1  0  0  0  0
 20  3  1  0  0  0  0
M  END
>  <zinc_id>
ZINC000027106486

>  <smiles>
COc1cc(/C=C/c2ccc(O)c(O)c2)cc(OC)c1

$$$$
