
 OpenBabel07162211283D

 28 30  0  0  0  0  0  0  0  0999 V2000
   -3.4232   -2.2347   -0.4752 O   0  0  0  0  0  0  0  0  0  0  0  0
   -3.5813   -1.0203   -0.6892 C   0  0  0  0  0  0  0  0  0  0  0  0
   -4.3429   -0.6466    0.7762 C   0  0  1  0  0  0  0  0  0  0  0  0
   -3.6107    0.5813    1.1513 O   0  0  0  0  0  0  0  0  0  0  0  0
   -2.9896    1.6396    0.2829 C   0  0  1  0  0  0  0  0  0  0  0  0
   -2.2489    0.6747   -0.7508 O   0  0  0  0  0  0  0  0  0  0  0  0
   -0.8824    0.7336   -0.4223 C   0  0  0  0  0  0  0  0  0  0  0  0
   -0.4446    0.7378    0.8973 C   0  0  0  0  0  0  0  0  0  0  0  0
    0.4810   -0.2020    1.3399 C   0  0  0  0  0  0  0  0  0  0  0  0
    1.0300   -1.1416    0.4776 C   0  0  0  0  0  0  0  0  0  0  0  0
    2.3036   -1.7457    0.8816 C   0  0  0  0  0  0  0  0  0  0  0  0
    3.2324   -1.1250    1.5695 C   0  0  0  0  0  0  0  0  0  0  0  0
    4.6008   -0.9245    1.0744 C   0  0  0  0  0  0  0  0  0  0  0  0
    5.1561   -1.8985    0.2582 C   0  0  0  0  0  0  0  0  0  0  0  0
    6.1726   -1.6130   -0.6339 C   0  0  0  0  0  0  0  0  0  0  0  0
    6.8635   -2.6265   -1.3001 O   0  0  0  0  0  0  0  0  0  0  0  0
    6.6053   -0.3144   -0.7424 C   0  0  0  0  0  0  0  0  0  0  0  0
    5.9862    0.7032   -0.0644 C   0  0  0  0  0  0  0  0  0  0  0  0
    6.4514    2.0072   -0.0099 O   0  0  0  0  0  0  0  0  0  0  0  0
    4.9248    0.3826    0.7511 C   0  0  0  0  0  0  0  0  0  0  0  0
    0.8821   -0.8888   -0.8738 C   0  0  0  0  0  0  0  0  0  0  0  0
    0.0504    0.1516   -1.2755 C   0  0  0  0  0  0  0  0  0  0  0  0
   -4.3986    1.8482   -0.7666 C   0  0  2  0  0  0  0  0  0  0  0  0
   -4.3552    3.3331   -0.5625 O   0  0  0  0  0  0  0  0  0  0  0  0
   -5.4480    1.6432    0.5920 C   0  0  1  0  0  0  0  0  0  0  0  0
   -6.6278    2.1746   -0.2020 O   0  0  0  0  0  0  0  0  0  0  0  0
   -5.7139    0.0733   -0.0646 C   0  0  2  0  0  0  0  0  0  0  0  0
   -6.6729   -0.3024    1.0367 O   0  0  0  0  0  0  0  0  0  0  0  0
  1  2  1  0  0  0  0
  3  2  1  6  0  0  0
  3  4  1  0  0  0  0
  4  5  1  0  0  0  0
  5  6  1  6  0  0  0
  5 23  1  0  0  0  0
  6  7  1  0  0  0  0
  7  8  2  0  0  0  0
  8  9  1  0  0  0  0
  9 10  2  0  0  0  0
 10 11  1  0  0  0  0
 10 21  1  0  0  0  0
 11 12  2  0  0  0  0
 12 13  1  0  0  0  0
 13 14  2  0  0  0  0
 14 15  1  0  0  0  0
 15 16  1  0  0  0  0
 15 17  2  0  0  0  0
 17 18  1  0  0  0  0
 18 19  1  0  0  0  0
 18 20  2  0  0  0  0
 20 13  1  0  0  0  0
 21 22  2  0  0  0  0
 22  7  1  0  0  0  0
 23 24  1  1  0  0  0
 23 25  1  0  0  0  0
 25 26  1  6  0  0  0
 25 27  1  0  0  0  0
 27 28  1  1  0  0  0
 27  3  1  0  0  0  0
M  END
>  <zinc_id>
ZINC000031159448

>  <smiles>
OC[C@H]1O[C@@H](Oc2ccc(/C=C/c3cc(O)cc(O)c3)cc2)[C@H](O)[C@@H](O)[C@@H]1O

$$$$
