
 OpenBabel07162211283D

 20 21  0  0  0  0  0  0  0  0999 V2000
   -5.2389    1.7529    0.1188 C   0  0  0  0  0  0  0  0  0  0  0  0
   -5.2610    0.3927   -0.3096 O   0  0  0  0  0  0  0  0  0  0  0  0
   -4.0167   -0.2458   -0.3296 C   0  0  0  0  0  0  0  0  0  0  0  0
   -3.1408   -0.0153   -1.3808 C   0  0  0  0  0  0  0  0  0  0  0  0
   -3.6181    0.5183   -2.5813 O   0  0  0  0  0  0  0  0  0  0  0  0
   -1.7744   -0.0154   -1.1321 C   0  0  0  0  0  0  0  0  0  0  0  0
   -1.2625   -0.1014    0.1560 C   0  0  0  0  0  0  0  0  0  0  0  0
    0.0093    0.5262    0.5191 C   0  0  0  0  0  0  0  0  0  0  0  0
    1.0625   -0.1339    0.9323 C   0  0  0  0  0  0  0  0  0  0  0  0
    2.4016    0.0025    0.3796 C   0  0  0  0  0  0  0  0  0  0  0  0
    3.1447    1.1586    0.5774 C   0  0  0  0  0  0  0  0  0  0  0  0
    4.5294    1.1249    0.5020 C   0  0  0  0  0  0  0  0  0  0  0  0
    5.2955    2.2438    0.7843 O   0  0  0  0  0  0  0  0  0  0  0  0
    5.1894   -0.0806    0.3066 C   0  0  0  0  0  0  0  0  0  0  0  0
    4.4608   -1.1688   -0.1518 C   0  0  0  0  0  0  0  0  0  0  0  0
    5.0957   -2.4112   -0.0740 O   0  0  0  0  0  0  0  0  0  0  0  0
    3.0791   -1.0476   -0.2274 C   0  0  0  0  0  0  0  0  0  0  0  0
   -2.1099   -0.6621    1.1003 C   0  0  0  0  0  0  0  0  0  0  0  0
   -3.4668   -0.7857    0.8267 C   0  0  0  0  0  0  0  0  0  0  0  0
   -4.3789   -1.0521    1.8526 O   0  0  0  0  0  0  0  0  0  0  0  0
  1  2  1  0  0  0  0
  2  3  1  0  0  0  0
  3  4  2  0  0  0  0
  4  5  1  0  0  0  0
  4  6  1  0  0  0  0
  6  7  2  0  0  0  0
  7  8  1  0  0  0  0
  7 18  1  0  0  0  0
  8  9  2  0  0  0  0
  9 10  1  0  0  0  0
 10 11  2  0  0  0  0
 11 12  1  0  0  0  0
 12 13  1  0  0  0  0
 12 14  2  0  0  0  0
 14 15  1  0  0  0  0
 15 16  1  0  0  0  0
 15 17  2  0  0  0  0
 17 10  1  0  0  0  0
 18 19  2  0  0  0  0
 19 20  1  0  0  0  0
 19  3  1  0  0  0  0
M  END
>  <zinc_id>
ZINC000031166745

>  <smiles>
COc1c(O)cc(/C=C/c2cc(O)cc(O)c2)cc1O

$$$$
