
 OpenBabel07162211283D

 27 28  0  0  0  0  0  0  0  0999 V2000
    4.9052   -1.0997   -2.0927 C   0  0  0  0  0  0  0  0  0  0  0  0
    4.7280   -0.0017   -1.2036 O   0  0  0  0  0  0  0  0  0  0  0  0
    3.4904    0.1932   -0.5809 C   0  0  0  0  0  0  0  0  0  0  0  0
    2.4596    0.8301   -1.2570 C   0  0  0  0  0  0  0  0  0  0  0  0
    1.1598    0.3461   -1.1781 C   0  0  0  0  0  0  0  0  0  0  0  0
    0.8237   -0.7220   -0.3545 C   0  0  0  0  0  0  0  0  0  0  0  0
   -0.0793   -1.7487   -0.8979 C   0  0  0  0  0  0  0  0  0  0  0  0
   -1.2237   -1.2455   -1.3647 C   0  0  0  0  0  0  0  0  0  0  0  0
   -2.0296   -0.5730   -0.3347 C   0  0  0  0  0  0  0  0  0  0  0  0
   -2.2270    0.7884   -0.5315 C   0  0  0  0  0  0  0  0  0  0  0  0
   -3.2995    1.4337    0.0721 C   0  0  0  0  0  0  0  0  0  0  0  0
   -3.4717    2.7954   -0.1961 O   0  0  0  0  0  0  0  0  0  0  0  0
   -2.5924    3.7835    0.3252 C   0  0  0  0  0  0  0  0  0  0  0  0
   -4.3843    0.6818    0.4913 C   0  0  0  0  0  0  0  0  0  0  0  0
   -5.5320    1.3627    0.8511 O   0  0  0  0  0  0  0  0  0  0  0  0
   -6.6858    0.6873    1.3383 C   0  0  0  0  0  0  0  0  0  0  0  0
   -4.3159   -0.7040    0.4955 C   0  0  0  0  0  0  0  0  0  0  0  0
   -5.5461   -1.3638    0.4102 O   0  0  0  0  0  0  0  0  0  0  0  0
   -5.7612   -2.6508    0.9248 C   0  0  0  0  0  0  0  0  0  0  0  0
   -3.1187   -1.2724    0.1718 C   0  0  0  0  0  0  0  0  0  0  0  0
    1.7952   -1.0707    0.5758 C   0  0  0  0  0  0  0  0  0  0  0  0
    3.1008   -0.6037    0.4888 C   0  0  0  0  0  0  0  0  0  0  0  0
    4.1502   -1.2112    1.1853 O   0  0  0  0  0  0  0  0  0  0  0  0
    4.8765   -0.5772    2.2058 C   0  0  0  0  0  0  0  0  0  0  0  0
    5.9358    0.3201    1.7090 C   0  0  0  0  0  0  0  0  0  0  0  0
    7.0608   -0.0709    1.2964 O   0  0  0  0  0  0  0  0  0  0  0  0
    5.7813    1.6931    1.8604 O   0  0  0  0  0  0  0  0  0  0  0  0
  1  2  1  0  0  0  0
  2  3  1  0  0  0  0
  3  4  2  0  0  0  0
  4  5  1  0  0  0  0
  5  6  2  0  0  0  0
  6  7  1  0  0  0  0
  6 21  1  0  0  0  0
  7  8  2  0  0  0  0
  8  9  1  0  0  0  0
  9 10  2  0  0  0  0
 10 11  1  0  0  0  0
 11 12  1  0  0  0  0
 11 14  2  0  0  0  0
 12 13  1  0  0  0  0
 14 15  1  0  0  0  0
 14 17  1  0  0  0  0
 15 16  1  0  0  0  0
 17 18  1  0  0  0  0
 17 20  2  0  0  0  0
 18 19  1  0  0  0  0
 20  9  1  0  0  0  0
 21 22  2  0  0  0  0
 22 23  1  0  0  0  0
 22  3  1  0  0  0  0
 23 24  1  0  0  0  0
 24 25  1  0  0  0  0
 25 26  2  0  0  0  0
 25 27  1  0  0  0  0
M  END
>  <zinc_id>
ZINC000031841007

>  <smiles>
COc1ccc(/C=C\c2cc(OC)c(OC)c(OC)c2)cc1OCC(=O)O

$$$$
