
 OpenBabel07162211283D

 22 24  0  0  0  0  0  0  0  0999 V2000
   -5.1129    1.5451    1.4021 C   0  0  0  0  0  0  0  0  0  0  0  0
   -4.1968    1.9675    0.3942 O   0  0  0  0  0  0  0  0  0  0  0  0
   -3.2994    0.9905   -0.0425 C   0  0  0  0  0  0  0  0  0  0  0  0
   -2.0998    0.7859    0.5965 C   0  0  0  0  0  0  0  0  0  0  0  0
   -1.4161   -0.4198    0.5543 C   0  0  0  0  0  0  0  0  0  0  0  0
    0.0507   -0.4365    0.6184 C   0  0  0  0  0  0  0  0  0  0  0  0
    0.7801   -0.2347   -0.4780 C   0  0  0  0  0  0  0  0  0  0  0  0
    2.2459   -0.1986   -0.4472 C   0  0  0  0  0  0  0  0  0  0  0  0
    2.8725   -1.2459    0.2179 C   0  0  0  0  0  0  0  0  0  0  0  0
    4.0853   -1.1013    0.8559 C   0  0  0  0  0  0  0  0  0  0  0  0
    4.6142    0.1627    0.9942 C   0  0  0  0  0  0  0  0  0  0  0  0
    5.8898    0.2952    1.5513 O   0  0  0  0  0  0  0  0  0  0  0  0
    6.9330   -0.3783    0.8657 C   0  0  0  0  0  0  0  0  0  0  0  0
    4.0635    1.2099    0.2892 C   0  0  0  0  0  0  0  0  0  0  0  0
    4.5254    2.5209    0.6343 N   0  0  0  0  0  0  0  0  0  0  0  0
    2.8654    1.0264   -0.3747 C   0  0  0  0  0  0  0  0  0  0  0  0
   -2.0391   -1.4506   -0.1016 C   0  0  0  0  0  0  0  0  0  0  0  0
   -3.2011   -1.2990   -0.8356 C   0  0  0  0  0  0  0  0  0  0  0  0
   -3.8068   -0.0489   -0.8037 C   0  0  0  0  0  0  0  0  0  0  0  0
   -4.7514   -0.0768   -1.8267 O   0  0  0  0  0  0  0  0  0  0  0  0
   -4.8825   -1.4172   -2.2955 C   0  0  0  0  0  0  0  0  0  0  0  0
   -4.1200   -2.1964   -1.3839 O   0  0  0  0  0  0  0  0  0  0  0  0
  1  2  1  0  0  0  0
  2  3  1  0  0  0  0
  3  4  2  0  0  0  0
  4  5  1  0  0  0  0
  5  6  1  0  0  0  0
  5 17  2  0  0  0  0
  6  7  2  0  0  0  0
  7  8  1  0  0  0  0
  8  9  2  0  0  0  0
  9 10  1  0  0  0  0
 10 11  2  0  0  0  0
 11 12  1  0  0  0  0
 11 14  1  0  0  0  0
 12 13  1  0  0  0  0
 14 15  1  0  0  0  0
 14 16  2  0  0  0  0
 16  8  1  0  0  0  0
 17 18  1  0  0  0  0
 18 19  2  0  0  0  0
 19 20  1  0  0  0  0
 19  3  1  0  0  0  0
 20 21  1  0  0  0  0
 21 22  1  0  0  0  0
 22 18  1  0  0  0  0
M  END
>  <zinc_id>
ZINC000033796338

>  <smiles>
COc1ccc(/C=C/c2cc(OC)c3c(c2)OCO3)cc1N

$$$$
