
 OpenBabel07162211283D

 24 26  0  0  0  0  0  0  0  0999 V2000
    1.9867    3.5981   -0.4043 C   0  0  0  0  0  0  0  0  0  0  0  0
    2.2467    2.8034    0.7252 O   0  0  0  0  0  0  0  0  0  0  0  0
    2.3423    1.4222    0.5349 C   0  0  0  0  0  0  0  0  0  0  0  0
    1.2486    0.7981   -0.0321 C   0  0  0  0  0  0  0  0  0  0  0  0
    1.2029   -0.5907   -0.0578 C   0  0  0  0  0  0  0  0  0  0  0  0
   -0.0012   -1.1641   -0.6737 C   0  0  0  0  0  0  0  0  0  0  0  0
   -1.1024   -1.4254   -0.0180 C   0  0  0  0  0  0  0  0  0  0  0  0
   -2.4437   -1.0478   -0.4127 C   0  0  0  0  0  0  0  0  0  0  0  0
   -2.7350    0.0929   -1.1502 C   0  0  0  0  0  0  0  0  0  0  0  0
   -3.7633    0.9559   -0.7930 C   0  0  0  0  0  0  0  0  0  0  0  0
   -4.7145    0.5402    0.1226 C   0  0  0  0  0  0  0  0  0  0  0  0
   -5.5318    1.4048    0.8231 O   0  0  0  0  0  0  0  0  0  0  0  0
   -5.0849    2.7330    1.0718 C   0  0  0  0  0  0  0  0  0  0  0  0
   -4.6603   -0.7851    0.5247 C   0  0  0  0  0  0  0  0  0  0  0  0
   -5.7952   -1.3986    1.0610 O   0  0  0  0  0  0  0  0  0  0  0  0
   -3.4761   -1.5015    0.3993 C   0  0  0  0  0  0  0  0  0  0  0  0
    2.4213   -1.2364   -0.0780 C   0  0  0  0  0  0  0  0  0  0  0  0
    2.3824   -2.6237   -0.0493 O   0  0  0  0  0  0  0  0  0  0  0  0
    2.8115   -3.3273   -1.2048 C   0  0  0  0  0  0  0  0  0  0  0  0
    3.6259   -0.5816    0.1315 C   0  0  0  0  0  0  0  0  0  0  0  0
    3.5622    0.7883    0.3378 C   0  0  0  0  0  0  0  0  0  0  0  0
    4.8513    1.1898    0.6124 O   0  0  0  0  0  0  0  0  0  0  0  0
    5.7112    0.2566   -0.0202 C   0  0  0  0  0  0  0  0  0  0  0  0
    4.9153   -0.9011   -0.2645 O   0  0  0  0  0  0  0  0  0  0  0  0
  1  2  1  0  0  0  0
  2  3  1  0  0  0  0
  3  4  2  0  0  0  0
  4  5  1  0  0  0  0
  5  6  1  0  0  0  0
  5 17  2  0  0  0  0
  6  7  2  0  0  0  0
  7  8  1  0  0  0  0
  8  9  2  0  0  0  0
  9 10  1  0  0  0  0
 10 11  2  0  0  0  0
 11 12  1  0  0  0  0
 11 14  1  0  0  0  0
 12 13  1  0  0  0  0
 14 15  1  0  0  0  0
 14 16  2  0  0  0  0
 16  8  1  0  0  0  0
 17 18  1  0  0  0  0
 17 20  1  0  0  0  0
 18 19  1  0  0  0  0
 20 21  2  0  0  0  0
 21 22  1  0  0  0  0
 21  3  1  0  0  0  0
 22 23  1  0  0  0  0
 23 24  1  0  0  0  0
 24 20  1  0  0  0  0
M  END
>  <zinc_id>
ZINC000035326369

>  <smiles>
COc1ccc(/C=C/c2cc(OC)c3c(c2OC)OCO3)cc1O

$$$$
