
 OpenBabel07162211283D

 21 22  0  0  0  0  0  0  0  0999 V2000
   -4.4200   -1.6376    1.4771 O   0  0  0  0  0  0  0  0  0  0  0  0
   -4.1002   -1.9189    0.0266 S   0  0  0  0  0  0  0  0  0  0  0  0
   -2.8069   -2.6802   -0.0554 O   0  0  0  0  0  0  0  0  0  0  0  0
   -5.3488   -2.7938   -0.6623 O   0  0  0  0  0  0  0  0  0  0  0  0
   -3.9642   -0.4366   -0.7813 O   0  0  0  0  0  0  0  0  0  0  0  0
   -2.9008    0.4195   -0.5123 C   0  0  0  0  0  0  0  0  0  0  0  0
   -3.1818    1.7025   -0.0703 C   0  0  0  0  0  0  0  0  0  0  0  0
   -2.1160    2.5576    0.1745 C   0  0  0  0  0  0  0  0  0  0  0  0
   -2.3884    3.8478    0.5752 O   0  0  0  0  0  0  0  0  0  0  0  0
   -0.8248    2.0458    0.1453 C   0  0  0  0  0  0  0  0  0  0  0  0
   -0.7141    0.6777    0.3594 C   0  0  0  0  0  0  0  0  0  0  0  0
    0.5527    0.0594    0.7708 C   0  0  0  0  0  0  0  0  0  0  0  0
    1.6084    0.3208    0.0381 C   0  0  0  0  0  0  0  0  0  0  0  0
    2.8642   -0.4375    0.1201 C   0  0  0  0  0  0  0  0  0  0  0  0
    3.7205   -0.3295    1.2088 C   0  0  0  0  0  0  0  0  0  0  0  0
    5.0905   -0.1953    1.0170 C   0  0  0  0  0  0  0  0  0  0  0  0
    5.6566   -0.2087   -0.2513 C   0  0  0  0  0  0  0  0  0  0  0  0
    6.6798    0.7016   -0.5406 O   0  0  0  0  0  0  0  0  0  0  0  0
    4.8451   -0.7113   -1.2611 C   0  0  0  0  0  0  0  0  0  0  0  0
    3.4726   -0.8157   -1.0706 C   0  0  0  0  0  0  0  0  0  0  0  0
   -1.7241   -0.1677   -0.0776 C   0  0  0  0  0  0  0  0  0  0  0  0
  1  2  2  0  0  0  0
  2  3  2  0  0  0  0
  2  4  1  0  0  0  0
  2  5  1  0  0  0  0
  5  6  1  0  0  0  0
  6  7  2  0  0  0  0
  7  8  1  0  0  0  0
  8  9  1  0  0  0  0
  8 10  2  0  0  0  0
 10 11  1  0  0  0  0
 11 12  1  0  0  0  0
 11 21  2  0  0  0  0
 12 13  2  0  0  0  0
 13 14  1  0  0  0  0
 14 15  2  0  0  0  0
 15 16  1  0  0  0  0
 16 17  2  0  0  0  0
 17 18  1  0  0  0  0
 17 19  1  0  0  0  0
 19 20  2  0  0  0  0
 20 14  1  0  0  0  0
 21  6  1  0  0  0  0
M  END
>  <zinc_id>
ZINC000035653092

>  <smiles>
O=S(=O)(O)Oc1cc(O)cc(/C=C/c2ccc(O)cc2)c1

$$$$
