
 OpenBabel07162211283D

 23 24  0  0  0  0  0  0  0  0999 V2000
   -6.3491    1.8181   -0.9798 C   0  0  0  0  0  0  0  0  0  0  0  0
   -5.8701    0.4794   -0.9409 O   0  0  0  0  0  0  0  0  0  0  0  0
   -4.7366    0.1137   -0.2132 C   0  0  0  0  0  0  0  0  0  0  0  0
   -3.9576    1.0428    0.4404 C   0  0  0  0  0  0  0  0  0  0  0  0
   -2.6009    0.7761    0.5684 C   0  0  0  0  0  0  0  0  0  0  0  0
   -2.2163   -0.5531    0.6906 C   0  0  0  0  0  0  0  0  0  0  0  0
   -0.7786   -0.8170    0.5523 C   0  0  0  0  0  0  0  0  0  0  0  0
   -0.2106   -0.5751   -0.6148 C   0  0  0  0  0  0  0  0  0  0  0  0
    1.2366   -0.3310   -0.6516 C   0  0  0  0  0  0  0  0  0  0  0  0
    2.1022   -1.3357   -0.2370 C   0  0  0  0  0  0  0  0  0  0  0  0
    3.3001   -1.0514    0.3883 C   0  0  0  0  0  0  0  0  0  0  0  0
    4.0932   -2.1391    0.7426 O   0  0  0  0  0  0  0  0  0  0  0  0
    3.5428   -3.3027    1.3294 C   0  0  0  0  0  0  0  0  0  0  0  0
    3.6942    0.2490    0.5279 C   0  0  0  0  0  0  0  0  0  0  0  0
    5.0442    0.4726    0.7925 O   0  0  0  0  0  0  0  0  0  0  0  0
    5.6436    1.6870    0.4145 C   0  0  0  0  0  0  0  0  0  0  0  0
    2.8496    1.2812    0.1557 C   0  0  0  0  0  0  0  0  0  0  0  0
    3.3862    2.5511    0.1378 O   0  0  0  0  0  0  0  0  0  0  0  0
    2.7047    3.6102    0.7978 C   0  0  0  0  0  0  0  0  0  0  0  0
    1.6899    0.9748   -0.5336 C   0  0  0  0  0  0  0  0  0  0  0  0
   -3.0521   -1.5088    0.1335 C   0  0  0  0  0  0  0  0  0  0  0  0
   -4.2870   -1.1860   -0.4086 C   0  0  0  0  0  0  0  0  0  0  0  0
   -5.2284   -2.2562   -0.5476 N   0  0  0  0  0  0  0  0  0  0  0  0
  1  2  1  0  0  0  0
  2  3  1  0  0  0  0
  3  4  2  0  0  0  0
  4  5  1  0  0  0  0
  5  6  2  0  0  0  0
  6  7  1  0  0  0  0
  6 21  1  0  0  0  0
  7  8  2  0  0  0  0
  8  9  1  0  0  0  0
  9 10  2  0  0  0  0
 10 11  1  0  0  0  0
 11 12  1  0  0  0  0
 11 14  2  0  0  0  0
 12 13  1  0  0  0  0
 14 15  1  0  0  0  0
 14 17  1  0  0  0  0
 15 16  1  0  0  0  0
 17 18  1  0  0  0  0
 17 20  2  0  0  0  0
 18 19  1  0  0  0  0
 20  9  1  0  0  0  0
 21 22  2  0  0  0  0
 22 23  1  0  0  0  0
 22  3  1  0  0  0  0
M  END
>  <zinc_id>
ZINC000038148874

>  <smiles>
COc1ccc(/C=C/c2cc(OC)c(OC)c(OC)c2)cc1N

$$$$
