
 OpenBabel07162211283D

 28 30  0  0  0  0  0  0  0  0999 V2000
    5.6299   -1.5836   -2.3114 O   0  0  0  0  0  0  0  0  0  0  0  0
    4.8325   -1.3923   -1.9929 C   0  0  0  0  0  0  0  0  0  0  0  0
    5.1294   -0.5424   -0.5828 C   0  0  1  0  0  0  0  0  0  0  0  0
    3.8710    0.3451   -0.5624 O   0  0  0  0  0  0  0  0  0  0  0  0
    3.7411    0.1939    0.9865 C   0  0  1  0  0  0  0  0  0  0  0  0
    3.0405    1.5999    1.1051 O   0  0  0  0  0  0  0  0  0  0  0  0
    1.7594    1.7464    0.7924 C   0  0  0  0  0  0  0  0  0  0  0  0
    1.3266    2.6410   -0.1775 C   0  0  0  0  0  0  0  0  0  0  0  0
   -0.0268    2.8752   -0.3951 C   0  0  0  0  0  0  0  0  0  0  0  0
   -0.9167    2.1001    0.3088 C   0  0  0  0  0  0  0  0  0  0  0  0
   -2.2762    1.8174   -0.1669 C   0  0  0  0  0  0  0  0  0  0  0  0
   -2.5571    0.6193   -0.6759 C   0  0  0  0  0  0  0  0  0  0  0  0
   -3.9176    0.1304   -0.6095 C   0  0  0  0  0  0  0  0  0  0  0  0
   -4.9670    1.0212   -0.4659 C   0  0  0  0  0  0  0  0  0  0  0  0
   -6.1773    0.5735    0.0432 C   0  0  0  0  0  0  0  0  0  0  0  0
   -7.1246    1.4698    0.4763 O   0  0  0  0  0  0  0  0  0  0  0  0
   -6.3768   -0.7745    0.1144 C   0  0  0  0  0  0  0  0  0  0  0  0
   -5.3863   -1.6746   -0.1508 C   0  0  0  0  0  0  0  0  0  0  0  0
   -5.6560   -2.9968   -0.4059 O   0  0  0  0  0  0  0  0  0  0  0  0
   -4.1030   -1.1965   -0.3433 C   0  0  0  0  0  0  0  0  0  0  0  0
   -0.5196    1.3955    1.4354 C   0  0  0  0  0  0  0  0  0  0  0  0
    0.8058    1.5052    1.7790 C   0  0  0  0  0  0  0  0  0  0  0  0
    2.2147   -0.6778    0.8652 C   0  0  2  0  0  0  0  0  0  0  0  0
    2.4736   -1.4715    2.1159 O   0  0  0  0  0  0  0  0  0  0  0  0
    2.8686   -1.9565   -0.1166 C   0  0  1  0  0  0  0  0  0  0  0  0
    2.8649   -1.0878   -1.3512 O   0  0  0  0  0  0  0  0  0  0  0  0
    4.4740   -1.7436    0.5056 C   0  0  1  0  0  0  0  0  0  0  0  0
    4.9731   -2.9360   -0.2923 O   0  0  0  0  0  0  0  0  0  0  0  0
  1  2  1  0  0  0  0
  3  2  1  6  0  0  0
  3  4  1  0  0  0  0
  4  5  1  0  0  0  0
  5  6  1  1  0  0  0
  5 23  1  0  0  0  0
  6  7  1  0  0  0  0
  7  8  2  0  0  0  0
  8  9  1  0  0  0  0
  9 10  2  0  0  0  0
 10 11  1  0  0  0  0
 10 21  1  0  0  0  0
 11 12  2  0  0  0  0
 12 13  1  0  0  0  0
 13 14  2  0  0  0  0
 14 15  1  0  0  0  0
 15 16  1  0  0  0  0
 15 17  2  0  0  0  0
 17 18  1  0  0  0  0
 18 19  1  0  0  0  0
 18 20  2  0  0  0  0
 20 13  1  0  0  0  0
 21 22  2  0  0  0  0
 22  7  1  0  0  0  0
 23 24  1  1  0  0  0
 23 25  1  0  0  0  0
 25 26  1  6  0  0  0
 25 27  1  0  0  0  0
 27 28  1  6  0  0  0
 27  3  1  0  0  0  0
M  END
>  <zinc_id>
ZINC000038322005

>  <smiles>
OC[C@H]1O[C@@H](Oc2ccc(/C=C/c3cc(O)cc(O)c3)cc2)[C@H](O)[C@@H](O)[C@H]1O

$$$$
