
 OpenBabel07162211283D

 20 21  0  0  0  0  0  0  0  0999 V2000
    3.2242    2.7631   -0.0592 O   0  0  0  0  0  0  0  0  0  0  0  0
    3.0672    1.3893   -0.0646 C   0  0  0  0  0  0  0  0  0  0  0  0
    2.1085    0.7451   -0.8366 C   0  0  0  0  0  0  0  0  0  0  0  0
    1.9301   -0.6273   -0.7095 C   0  0  0  0  0  0  0  0  0  0  0  0
    0.5759   -1.1976   -0.7400 C   0  0  0  0  0  0  0  0  0  0  0  0
   -0.2948   -1.0507    0.2300 C   0  0  0  0  0  0  0  0  0  0  0  0
   -1.7157   -0.7766   -0.0188 C   0  0  0  0  0  0  0  0  0  0  0  0
   -2.6226   -0.7619    0.9988 C   0  0  0  0  0  0  0  0  0  0  0  0
   -3.9009   -0.2360    0.8609 C   0  0  0  0  0  0  0  0  0  0  0  0
   -4.8971   -0.4609    1.8145 O   0  0  0  0  0  0  0  0  0  0  0  0
   -4.2831    0.2747   -0.3623 C   0  0  0  0  0  0  0  0  0  0  0  0
   -5.2638    1.2705   -0.3650 O   0  0  0  0  0  0  0  0  0  0  0  0
   -3.4562    0.1337   -1.4425 C   0  0  0  0  0  0  0  0  0  0  0  0
   -3.8976    0.4662   -2.7073 O   0  0  0  0  0  0  0  0  0  0  0  0
   -2.1549   -0.2771   -1.2382 C   0  0  0  0  0  0  0  0  0  0  0  0
    2.8789   -1.3140    0.0072 C   0  0  0  0  0  0  0  0  0  0  0  0
    4.0740   -0.7374    0.3946 C   0  0  0  0  0  0  0  0  0  0  0  0
    5.2433   -1.4959    0.4326 O   0  0  0  0  0  0  0  0  0  0  0  0
    4.0813    0.6458    0.5276 C   0  0  0  0  0  0  0  0  0  0  0  0
    5.3035    1.2467    0.7863 O   0  0  0  0  0  0  0  0  0  0  0  0
  1  2  1  0  0  0  0
  2  3  2  0  0  0  0
  3  4  1  0  0  0  0
  4  5  1  0  0  0  0
  4 16  2  0  0  0  0
  5  6  2  0  0  0  0
  6  7  1  0  0  0  0
  7  8  2  0  0  0  0
  8  9  1  0  0  0  0
  9 10  1  0  0  0  0
  9 11  2  0  0  0  0
 11 12  1  0  0  0  0
 11 13  1  0  0  0  0
 13 14  1  0  0  0  0
 13 15  2  0  0  0  0
 15  7  1  0  0  0  0
 16 17  1  0  0  0  0
 17 18  1  0  0  0  0
 17 19  2  0  0  0  0
 19 20  1  0  0  0  0
 19  2  1  0  0  0  0
M  END
>  <zinc_id>
ZINC000038393465

>  <smiles>
Oc1cc(/C=C/c2cc(O)c(O)c(O)c2)cc(O)c1O

$$$$
