
 OpenBabel07162211283D

 22 24  0  0  0  0  0  0  0  0999 V2000
   -4.8758    1.9468    1.3343 C   0  0  0  0  0  0  0  0  0  0  0  0
   -3.5072    2.2006    1.0289 O   0  0  0  0  0  0  0  0  0  0  0  0
   -2.7192    1.2511    0.3699 C   0  0  0  0  0  0  0  0  0  0  0  0
   -1.5889    0.7139    0.9225 C   0  0  0  0  0  0  0  0  0  0  0  0
   -0.9611   -0.4238    0.4321 C   0  0  0  0  0  0  0  0  0  0  0  0
   -0.3671   -1.3618    1.3966 C   0  0  0  0  0  0  0  0  0  0  0  0
    0.6309   -2.0841    0.8856 C   0  0  0  0  0  0  0  0  0  0  0  0
    1.7505   -1.2974    0.3585 C   0  0  0  0  0  0  0  0  0  0  0  0
    1.6766    0.0418    0.0795 C   0  0  0  0  0  0  0  0  0  0  0  0
    2.8311    0.7316   -0.2671 C   0  0  0  0  0  0  0  0  0  0  0  0
    4.0808    0.2093    0.0176 C   0  0  0  0  0  0  0  0  0  0  0  0
    5.2364    0.9693    0.0256 O   0  0  0  0  0  0  0  0  0  0  0  0
    5.1822    2.2696    0.5854 C   0  0  0  0  0  0  0  0  0  0  0  0
    4.1652   -1.0709    0.5199 C   0  0  0  0  0  0  0  0  0  0  0  0
    5.3766   -1.6418    0.9221 O   0  0  0  0  0  0  0  0  0  0  0  0
    3.0066   -1.7740    0.7176 C   0  0  0  0  0  0  0  0  0  0  0  0
   -1.4650   -0.8999   -0.7713 C   0  0  0  0  0  0  0  0  0  0  0  0
   -2.6678   -0.4619   -1.2982 C   0  0  0  0  0  0  0  0  0  0  0  0
   -3.3225    0.6098   -0.7039 C   0  0  0  0  0  0  0  0  0  0  0  0
   -4.4398    0.9590   -1.4651 O   0  0  0  0  0  0  0  0  0  0  0  0
   -4.4365    0.0970   -2.5775 C   0  0  0  0  0  0  0  0  0  0  0  0
   -3.5859   -0.9843   -2.2153 O   0  0  0  0  0  0  0  0  0  0  0  0
  1  2  1  0  0  0  0
  2  3  1  0  0  0  0
  3  4  2  0  0  0  0
  4  5  1  0  0  0  0
  5  6  1  0  0  0  0
  5 17  2  0  0  0  0
  6  7  2  0  0  0  0
  7  8  1  0  0  0  0
  8  9  2  0  0  0  0
  9 10  1  0  0  0  0
 10 11  2  0  0  0  0
 11 12  1  0  0  0  0
 11 14  1  0  0  0  0
 12 13  1  0  0  0  0
 14 15  1  0  0  0  0
 14 16  2  0  0  0  0
 16  8  1  0  0  0  0
 17 18  1  0  0  0  0
 18 19  2  0  0  0  0
 19 20  1  0  0  0  0
 19  3  1  0  0  0  0
 20 21  1  0  0  0  0
 21 22  1  0  0  0  0
 22 18  1  0  0  0  0
M  END
>  <zinc_id>
ZINC000000024633

>  <smiles>
COc1ccc(/C=C\c2cc(OC)c3c(c2)OCO3)cc1O

$$$$
