
 OpenBabel07162211283D

 28 30  0  0  0  0  0  0  0  0999 V2000
    4.0592    3.4371   -0.5007 O   0  0  0  0  0  0  0  0  0  0  0  0
    4.4574    2.4060   -0.8083 C   0  0  0  0  0  0  0  0  0  0  0  0
    4.4465    1.4851    0.5934 C   0  0  1  0  0  0  0  0  0  0  0  0
    3.3102    0.5403    0.2189 O   0  0  0  0  0  0  0  0  0  0  0  0
    2.9879    0.9211   -1.2418 C   0  0  2  0  0  0  0  0  0  0  0  0
    1.9988   -0.2929   -1.3603 O   0  0  0  0  0  0  0  0  0  0  0  0
    1.1050   -0.5249   -0.3806 C   0  0  0  0  0  0  0  0  0  0  0  0
    1.0320   -1.8577    0.0223 C   0  0  0  0  0  0  0  0  0  0  0  0
   -0.0796   -2.4720    0.5126 C   0  0  0  0  0  0  0  0  0  0  0  0
   -0.4311   -3.8030    0.2449 O   0  0  0  0  0  0  0  0  0  0  0  0
   -1.0709   -1.5924    0.9371 C   0  0  0  0  0  0  0  0  0  0  0  0
   -1.1811   -0.3007    0.4345 C   0  0  0  0  0  0  0  0  0  0  0  0
   -2.4936    0.3468    0.2614 C   0  0  0  0  0  0  0  0  0  0  0  0
   -3.5237   -0.4664    0.1855 C   0  0  0  0  0  0  0  0  0  0  0  0
   -4.8792   -0.1334   -0.1020 C   0  0  0  0  0  0  0  0  0  0  0  0
   -5.8840   -0.6776    0.6903 C   0  0  0  0  0  0  0  0  0  0  0  0
   -7.0603    0.0229    0.9316 C   0  0  0  0  0  0  0  0  0  0  0  0
   -7.2323    1.2786    0.3582 C   0  0  0  0  0  0  0  0  0  0  0  0
   -7.7502    2.3538    1.0918 O   0  0  0  0  0  0  0  0  0  0  0  0
   -6.4781    1.4897   -0.7916 C   0  0  0  0  0  0  0  0  0  0  0  0
   -5.3289    0.7503   -1.0530 C   0  0  0  0  0  0  0  0  0  0  0  0
   -0.0264    0.2310   -0.1058 C   0  0  0  0  0  0  0  0  0  0  0  0
    4.3655    0.0377   -1.9226 C   0  0  2  0  0  0  0  0  0  0  0  0
    3.5689   -1.0677   -2.5535 O   0  0  0  0  0  0  0  0  0  0  0  0
    4.6497   -0.8281   -0.4565 C   0  0  1  0  0  0  0  0  0  0  0  0
    5.7859   -1.5815   -1.0997 O   0  0  0  0  0  0  0  0  0  0  0  0
    5.7258    0.4432    0.0121 C   0  0  2  0  0  0  0  0  0  0  0  0
    5.9264   -0.1452    1.3862 O   0  0  0  0  0  0  0  0  0  0  0  0
  1  2  1  0  0  0  0
  3  2  1  6  0  0  0
  3  4  1  0  0  0  0
  4  5  1  0  0  0  0
  5  6  1  6  0  0  0
  5 23  1  0  0  0  0
  6  7  1  0  0  0  0
  7  8  2  0  0  0  0
  8  9  1  0  0  0  0
  9 10  1  0  0  0  0
  9 11  2  0  0  0  0
 11 12  1  0  0  0  0
 12 13  1  0  0  0  0
 12 22  2  0  0  0  0
 13 14  2  0  0  0  0
 14 15  1  0  0  0  0
 15 16  2  0  0  0  0
 16 17  1  0  0  0  0
 17 18  2  0  0  0  0
 18 19  1  0  0  0  0
 18 20  1  0  0  0  0
 20 21  2  0  0  0  0
 21 15  1  0  0  0  0
 22  7  1  0  0  0  0
 23 24  1  6  0  0  0
 23 25  1  0  0  0  0
 25 26  1  6  0  0  0
 25 27  1  0  0  0  0
 27 28  1  1  0  0  0
 27  3  1  0  0  0  0
M  END
>  <zinc_id>
ZINC000039205864

>  <smiles>
OC[C@H]1O[C@H](Oc2cc(O)cc(/C=C/c3ccc(O)cc3)c2)[C@H](O)[C@@H](O)[C@@H]1O

$$$$
