
 OpenBabel07162211283D

 20 21  0  0  0  0  0  0  0  0999 V2000
    5.2399   -2.4257   -0.1121 C   0  0  0  0  0  0  0  0  0  0  0  0
    4.9134   -1.1023    0.2218 O   0  0  0  0  0  0  0  0  0  0  0  0
    3.6196   -0.5996    0.2598 C   0  0  0  0  0  0  0  0  0  0  0  0
    2.5785   -1.5073    0.3893 C   0  0  0  0  0  0  0  0  0  0  0  0
    1.2805   -1.0222    0.4055 C   0  0  0  0  0  0  0  0  0  0  0  0
    1.0065    0.3231    0.1872 C   0  0  0  0  0  0  0  0  0  0  0  0
   -0.3309    0.8060   -0.1461 C   0  0  0  0  0  0  0  0  0  0  0  0
   -1.0030    0.4408   -1.2131 C   0  0  0  0  0  0  0  0  0  0  0  0
   -2.4360    0.1356   -1.1254 C   0  0  0  0  0  0  0  0  0  0  0  0
   -2.8202   -1.1315   -0.7174 C   0  0  0  0  0  0  0  0  0  0  0  0
   -3.9180   -1.3439    0.1068 C   0  0  0  0  0  0  0  0  0  0  0  0
   -4.4783   -2.6219    0.0284 O   0  0  0  0  0  0  0  0  0  0  0  0
   -4.7019   -0.2544    0.4546 C   0  0  0  0  0  0  0  0  0  0  0  0
   -4.4582    0.9740   -0.1138 C   0  0  0  0  0  0  0  0  0  0  0  0
   -5.2858    2.0288    0.2817 O   0  0  0  0  0  0  0  0  0  0  0  0
   -3.2863    1.1870   -0.8121 C   0  0  0  0  0  0  0  0  0  0  0  0
    2.0662    1.0606   -0.3275 C   0  0  0  0  0  0  0  0  0  0  0  0
    3.3853    0.7002   -0.0889 C   0  0  0  0  0  0  0  0  0  0  0  0
    4.4206    1.5368   -0.4446 O   0  0  0  0  0  0  0  0  0  0  0  0
    4.2080    2.8157   -0.9878 C   0  0  0  0  0  0  0  0  0  0  0  0
  1  2  1  0  0  0  0
  2  3  1  0  0  0  0
  3  4  2  0  0  0  0
  4  5  1  0  0  0  0
  5  6  2  0  0  0  0
  6  7  1  0  0  0  0
  6 17  1  0  0  0  0
  7  8  2  0  0  0  0
  8  9  1  0  0  0  0
  9 10  2  0  0  0  0
 10 11  1  0  0  0  0
 11 12  1  0  0  0  0
 11 13  2  0  0  0  0
 13 14  1  0  0  0  0
 14 15  1  0  0  0  0
 14 16  2  0  0  0  0
 16  9  1  0  0  0  0
 17 18  2  0  0  0  0
 18 19  1  0  0  0  0
 18  3  1  0  0  0  0
 19 20  1  0  0  0  0
M  END
>  <zinc_id>
ZINC000040898987

>  <smiles>
COc1ccc(/C=C/c2cc(O)cc(O)c2)cc1OC

$$$$
