
 OpenBabel07162211283D

 28 30  0  0  0  0  0  0  0  0999 V2000
   -5.7873   -1.1532    0.5275 O   0  0  0  0  0  0  0  0  0  0  0  0
   -4.9986   -0.7156    1.1970 C   0  0  0  0  0  0  0  0  0  0  0  0
   -4.2952    0.0793   -0.0462 C   0  0  2  0  0  0  0  0  0  0  0  0
   -2.9241    0.0708    0.5642 O   0  0  0  0  0  0  0  0  0  0  0  0
   -2.1964    1.0513   -0.3558 C   0  0  1  0  0  0  0  0  0  0  0  0
   -1.5144   -0.0895   -1.1424 O   0  0  0  0  0  0  0  0  0  0  0  0
   -0.8054   -0.9410   -0.3237 C   0  0  0  0  0  0  0  0  0  0  0  0
   -1.2122   -2.2372   -0.2032 C   0  0  0  0  0  0  0  0  0  0  0  0
   -0.3428   -3.2123    0.2186 C   0  0  0  0  0  0  0  0  0  0  0  0
   -0.7682   -4.5328    0.3678 O   0  0  0  0  0  0  0  0  0  0  0  0
    0.9393   -2.8311    0.5276 C   0  0  0  0  0  0  0  0  0  0  0  0
    1.4306   -1.5548    0.3213 C   0  0  0  0  0  0  0  0  0  0  0  0
    2.7982   -1.2505   -0.0292 C   0  0  0  0  0  0  0  0  0  0  0  0
    3.8668   -1.3624    0.6796 C   0  0  0  0  0  0  0  0  0  0  0  0
    5.0107   -0.4799    0.4573 C   0  0  0  0  0  0  0  0  0  0  0  0
    5.5129   -0.1659   -0.7811 C   0  0  0  0  0  0  0  0  0  0  0  0
    5.9025    1.1322   -1.0851 C   0  0  0  0  0  0  0  0  0  0  0  0
    5.8730    2.1163   -0.1216 C   0  0  0  0  0  0  0  0  0  0  0  0
    6.0356    3.4549   -0.3978 O   0  0  0  0  0  0  0  0  0  0  0  0
    5.7282    1.6800    1.1890 C   0  0  0  0  0  0  0  0  0  0  0  0
    5.4236    0.3577    1.4848 C   0  0  0  0  0  0  0  0  0  0  0  0
    0.5035   -0.6174   -0.1194 C   0  0  0  0  0  0  0  0  0  0  0  0
   -3.4409    1.1075   -1.5538 C   0  0  2  0  0  0  0  0  0  0  0  0
   -2.5950    1.9902   -2.4079 O   0  0  0  0  0  0  0  0  0  0  0  0
   -4.2423    2.4353   -0.8512 C   0  0  1  0  0  0  0  0  0  0  0  0
   -5.5167    2.0460   -1.5391 O   0  0  0  0  0  0  0  0  0  0  0  0
   -4.7940    1.6144    0.5452 C   0  0  2  0  0  0  0  0  0  0  0  0
   -3.5913    2.0079    1.3399 O   0  0  0  0  0  0  0  0  0  0  0  0
  1  2  1  0  0  0  0
  3  2  1  1  0  0  0
  3  4  1  0  0  0  0
  4  5  1  0  0  0  0
  5  6  1  6  0  0  0
  5 23  1  0  0  0  0
  6  7  1  0  0  0  0
  7  8  2  0  0  0  0
  8  9  1  0  0  0  0
  9 10  1  0  0  0  0
  9 11  2  0  0  0  0
 11 12  1  0  0  0  0
 12 13  1  0  0  0  0
 12 22  2  0  0  0  0
 13 14  2  0  0  0  0
 14 15  1  0  0  0  0
 15 16  2  0  0  0  0
 16 17  1  0  0  0  0
 17 18  2  0  0  0  0
 18 19  1  0  0  0  0
 18 20  1  0  0  0  0
 20 21  2  0  0  0  0
 21 15  1  0  0  0  0
 22  7  1  0  0  0  0
 23 24  1  6  0  0  0
 23 25  1  0  0  0  0
 25 26  1  6  0  0  0
 25 27  1  0  0  0  0
 27 28  1  1  0  0  0
 27  3  1  0  0  0  0
M  END
>  <zinc_id>
ZINC000065748638

>  <smiles>
OC[C@@H]1O[C@@H](Oc2cc(O)cc(/C=C/c3ccc(O)cc3)c2)[C@H](O)[C@@H](O)[C@@H]1O

$$$$
