
 OpenBabel07162211283D

 24 26  0  0  0  0  0  0  0  0999 V2000
   -5.5249   -0.8635    1.9797 C   0  0  0  0  0  0  0  0  0  0  0  0
   -4.1761   -0.5534    2.2180 O   0  0  0  0  0  0  0  0  0  0  0  0
   -3.2224   -0.4545    1.2168 C   0  0  0  0  0  0  0  0  0  0  0  0
   -2.1611   -1.3495    1.1639 C   0  0  0  0  0  0  0  0  0  0  0  0
   -1.3329   -1.3889    0.0501 C   0  0  0  0  0  0  0  0  0  0  0  0
    0.1004   -1.6421    0.2698 C   0  0  0  0  0  0  0  0  0  0  0  0
    0.8532   -0.8749    1.0355 C   0  0  0  0  0  0  0  0  0  0  0  0
    2.0718   -0.2071    0.5581 C   0  0  0  0  0  0  0  0  0  0  0  0
    1.9993    1.1069    0.1112 C   0  0  0  0  0  0  0  0  0  0  0  0
    3.0352    1.9960    0.2860 C   0  0  0  0  0  0  0  0  0  0  0  0
    4.2747    1.4278    0.5544 C   0  0  0  0  0  0  0  0  0  0  0  0
    5.3393    2.2700    0.7938 O   0  0  0  0  0  0  0  0  0  0  0  0
    4.4364    0.0496    0.6029 C   0  0  0  0  0  0  0  0  0  0  0  0
    5.7204   -0.4435    0.5540 O   0  0  0  0  0  0  0  0  0  0  0  0
    6.0711   -1.7160    0.0465 C   0  0  0  0  0  0  0  0  0  0  0  0
    3.3213   -0.6942    0.9099 C   0  0  0  0  0  0  0  0  0  0  0  0
   -1.7679   -0.6563   -1.0480 C   0  0  0  0  0  0  0  0  0  0  0  0
   -1.0609   -0.8135   -2.2160 O   0  0  0  0  0  0  0  0  0  0  0  0
   -1.4074   -1.8811   -3.0950 C   0  0  0  0  0  0  0  0  0  0  0  0
   -2.6907    0.3700   -0.9414 C   0  0  0  0  0  0  0  0  0  0  0  0
   -3.4029    0.5199    0.2427 C   0  0  0  0  0  0  0  0  0  0  0  0
   -4.1367    1.7083    0.1765 O   0  0  0  0  0  0  0  0  0  0  0  0
   -3.4085    2.5357   -0.7272 C   0  0  0  0  0  0  0  0  0  0  0  0
   -2.9309    1.5544   -1.6453 O   0  0  0  0  0  0  0  0  0  0  0  0
  1  2  1  0  0  0  0
  2  3  1  0  0  0  0
  3  4  2  0  0  0  0
  4  5  1  0  0  0  0
  5  6  1  0  0  0  0
  5 17  2  0  0  0  0
  6  7  2  0  0  0  0
  7  8  1  0  0  0  0
  8  9  2  0  0  0  0
  9 10  1  0  0  0  0
 10 11  2  0  0  0  0
 11 12  1  0  0  0  0
 11 13  1  0  0  0  0
 13 14  1  0  0  0  0
 13 16  2  0  0  0  0
 14 15  1  0  0  0  0
 16  8  1  0  0  0  0
 17 18  1  0  0  0  0
 17 20  1  0  0  0  0
 18 19  1  0  0  0  0
 20 21  2  0  0  0  0
 21 22  1  0  0  0  0
 21  3  1  0  0  0  0
 22 23  1  0  0  0  0
 23 24  1  0  0  0  0
 24 20  1  0  0  0  0
M  END
>  <zinc_id>
ZINC000066088586

>  <smiles>
COc1cc(/C=C/c2cc(OC)c3c(c2OC)OCO3)ccc1O

$$$$
