
 OpenBabel07162211283D

 25 26  0  0  0  0  0  0  0  0999 V2000
    5.1076    1.1509    2.4822 C   0  0  0  0  0  0  0  0  0  0  0  0
    5.3397    0.9299    1.0938 O   0  0  0  0  0  0  0  0  0  0  0  0
    4.3041    0.3667    0.3491 C   0  0  0  0  0  0  0  0  0  0  0  0
    3.3363    1.1336   -0.2656 C   0  0  0  0  0  0  0  0  0  0  0  0
    2.3923    0.4919   -1.0581 C   0  0  0  0  0  0  0  0  0  0  0  0
    1.9615   -0.7527   -0.6132 C   0  0  0  0  0  0  0  0  0  0  0  0
    1.1149   -1.4915   -1.5614 C   0  0  0  0  0  0  0  0  0  0  0  0
    0.0768   -0.8411   -2.0290 C   0  0  0  0  0  0  0  0  0  0  0  0
   -0.7987   -0.1965   -1.0740 C   0  0  0  0  0  0  0  0  0  0  0  0
   -0.5556   -0.1513    0.2909 C   0  0  0  0  0  0  0  0  0  0  0  0
   -1.4334    0.5837    1.0790 C   0  0  0  0  0  0  0  0  0  0  0  0
   -0.9864    1.3772    2.1402 O   0  0  0  0  0  0  0  0  0  0  0  0
   -1.9731    1.8745    3.0249 C   0  0  0  0  0  0  0  0  0  0  0  0
   -2.7829    0.5061    0.7546 C   0  0  0  0  0  0  0  0  0  0  0  0
   -3.7054    0.7692    1.7528 O   0  0  0  0  0  0  0  0  0  0  0  0
   -4.3692   -0.3185    2.3537 C   0  0  0  0  0  0  0  0  0  0  0  0
   -3.1377   -0.0006   -0.4811 C   0  0  0  0  0  0  0  0  0  0  0  0
   -4.4810   -0.2647   -0.7641 O   0  0  0  0  0  0  0  0  0  0  0  0
   -4.8418   -1.6418   -0.7962 C   0  0  0  0  0  0  0  0  0  0  0  0
   -2.1417   -0.1361   -1.4326 C   0  0  0  0  0  0  0  0  0  0  0  0
   -2.5334   -0.1112   -2.7752 O   0  0  0  0  0  0  0  0  0  0  0  0
   -2.2744    1.0747   -3.4806 C   0  0  0  0  0  0  0  0  0  0  0  0
    2.9355   -1.5182    0.0182 C   0  0  0  0  0  0  0  0  0  0  0  0
    4.1619   -1.0118    0.3947 C   0  0  0  0  0  0  0  0  0  0  0  0
    5.2839   -1.8226    0.5969 O   0  0  0  0  0  0  0  0  0  0  0  0
  1  2  1  0  0  0  0
  2  3  1  0  0  0  0
  3  4  2  0  0  0  0
  4  5  1  0  0  0  0
  5  6  2  0  0  0  0
  6  7  1  0  0  0  0
  6 23  1  0  0  0  0
  7  8  2  0  0  0  0
  8  9  1  0  0  0  0
  9 10  2  0  0  0  0
 10 11  1  0  0  0  0
 11 12  1  0  0  0  0
 11 14  2  0  0  0  0
 12 13  1  0  0  0  0
 14 15  1  0  0  0  0
 14 17  1  0  0  0  0
 15 16  1  0  0  0  0
 17 18  1  0  0  0  0
 17 20  2  0  0  0  0
 18 19  1  0  0  0  0
 20 21  1  0  0  0  0
 20  9  1  0  0  0  0
 21 22  1  0  0  0  0
 23 24  2  0  0  0  0
 24 25  1  0  0  0  0
 24  3  1  0  0  0  0
M  END
>  <zinc_id>
ZINC000066088590

>  <smiles>
COc1ccc(/C=C\c2cc(OC)c(OC)c(OC)c2OC)cc1O

$$$$
