
 OpenBabel07162211283D

 24 26  0  0  0  0  0  0  0  0999 V2000
    6.5144    1.1058   -0.4804 C   0  0  0  0  0  0  0  0  0  0  0  0
    5.8934   -0.1549   -0.7030 O   0  0  0  0  0  0  0  0  0  0  0  0
    4.5171   -0.2769   -0.9200 C   0  0  0  0  0  0  0  0  0  0  0  0
    3.7161    0.8303   -1.1730 C   0  0  0  0  0  0  0  0  0  0  0  0
    2.4168    0.9199   -0.6872 C   0  0  0  0  0  0  0  0  0  0  0  0
    1.9224   -0.0507    0.1631 C   0  0  0  0  0  0  0  0  0  0  0  0
    1.1528    0.2817    1.3713 C   0  0  0  0  0  0  0  0  0  0  0  0
    0.0797   -0.4946    1.5426 C   0  0  0  0  0  0  0  0  0  0  0  0
   -0.8933   -0.3854    0.4460 C   0  0  0  0  0  0  0  0  0  0  0  0
   -1.5749   -1.4912   -0.0444 C   0  0  0  0  0  0  0  0  0  0  0  0
   -2.9334   -1.4500   -0.3356 C   0  0  0  0  0  0  0  0  0  0  0  0
   -3.6323   -0.2549   -0.2148 C   0  0  0  0  0  0  0  0  0  0  0  0
   -2.8545    0.8898   -0.1526 C   0  0  0  0  0  0  0  0  0  0  0  0
   -3.5508    2.1015   -0.1629 O   0  0  0  0  0  0  0  0  0  0  0  0
   -4.0513    2.5460   -1.4210 C   0  0  0  0  0  0  0  0  0  0  0  0
   -1.5783    0.8226    0.3890 C   0  0  0  0  0  0  0  0  0  0  0  0
   -0.9310    1.9596    0.8819 O   0  0  0  0  0  0  0  0  0  0  0  0
   -1.2320    3.2566    0.4346 C   0  0  0  0  0  0  0  0  0  0  0  0
   -4.9708   -0.5493    0.0455 O   0  0  0  0  0  0  0  0  0  0  0  0
   -5.1298   -1.9610    0.1617 C   0  0  0  0  0  0  0  0  0  0  0  0
   -3.9348   -2.4146   -0.4685 O   0  0  0  0  0  0  0  0  0  0  0  0
    2.5930   -1.2680    0.1376 C   0  0  0  0  0  0  0  0  0  0  0  0
    3.8655   -1.3920   -0.4063 C   0  0  0  0  0  0  0  0  0  0  0  0
    4.5962   -2.5702   -0.2254 O   0  0  0  0  0  0  0  0  0  0  0  0
  1  2  1  0  0  0  0
  2  3  1  0  0  0  0
  3  4  2  0  0  0  0
  4  5  1  0  0  0  0
  5  6  2  0  0  0  0
  6  7  1  0  0  0  0
  6 22  1  0  0  0  0
  7  8  2  0  0  0  0
  8  9  1  0  0  0  0
  9 10  2  0  0  0  0
 10 11  1  0  0  0  0
 11 12  2  0  0  0  0
 12 13  1  0  0  0  0
 12 19  1  0  0  0  0
 13 14  1  0  0  0  0
 13 16  2  0  0  0  0
 14 15  1  0  0  0  0
 16 17  1  0  0  0  0
 16  9  1  0  0  0  0
 17 18  1  0  0  0  0
 19 20  1  0  0  0  0
 20 21  1  0  0  0  0
 21 11  1  0  0  0  0
 22 23  2  0  0  0  0
 23 24  1  0  0  0  0
 23  3  1  0  0  0  0
M  END
>  <zinc_id>
ZINC000066088597

>  <smiles>
COc1ccc(/C=C\c2cc3c(c(OC)c2OC)OCO3)cc1O

$$$$
