
 OpenBabel07162211283D

 23 25  0  0  0  0  0  0  0  0999 V2000
    6.2812    2.0103   -1.4852 C   0  0  0  0  0  0  0  0  0  0  0  0
    6.0514    0.8170   -0.7744 O   0  0  0  0  0  0  0  0  0  0  0  0
    4.8496    0.1313   -0.7771 C   0  0  0  0  0  0  0  0  0  0  0  0
    4.3460   -0.2515    0.4579 C   0  0  0  0  0  0  0  0  0  0  0  0
    3.0870   -0.8274    0.5311 C   0  0  0  0  0  0  0  0  0  0  0  0
    2.2621   -0.7223   -0.5612 C   0  0  0  0  0  0  0  0  0  0  0  0
    0.8279   -0.8338   -0.3643 C   0  0  0  0  0  0  0  0  0  0  0  0
    0.2218   -0.4484    0.7606 C   0  0  0  0  0  0  0  0  0  0  0  0
    0.9830    0.4535    1.6001 C   0  0  0  0  0  0  0  0  0  0  0  0
    1.3784    1.3935    2.1709 N   0  0  0  0  0  0  0  0  0  0  0  0
   -1.2370   -0.3039    0.6596 C   0  0  0  0  0  0  0  0  0  0  0  0
   -1.7045    0.9834    0.4993 C   0  0  0  0  0  0  0  0  0  0  0  0
   -3.0224    1.1438    0.1281 C   0  0  0  0  0  0  0  0  0  0  0  0
   -3.8184    0.0429   -0.1521 C   0  0  0  0  0  0  0  0  0  0  0  0
   -3.4236   -1.1597    0.4093 C   0  0  0  0  0  0  0  0  0  0  0  0
   -4.2009   -2.2764    0.1039 O   0  0  0  0  0  0  0  0  0  0  0  0
   -4.1298   -2.7643   -1.2103 C   0  0  0  0  0  0  0  0  0  0  0  0
   -2.1263   -1.3109    0.8820 C   0  0  0  0  0  0  0  0  0  0  0  0
   -4.8376    0.4525   -1.0005 O   0  0  0  0  0  0  0  0  0  0  0  0
   -4.9231    1.8696   -0.9020 C   0  0  0  0  0  0  0  0  0  0  0  0
   -3.7922    2.2707   -0.1529 O   0  0  0  0  0  0  0  0  0  0  0  0
    2.8339   -0.6212   -1.7991 C   0  0  0  0  0  0  0  0  0  0  0  0
    4.0934   -0.0488   -1.9285 C   0  0  0  0  0  0  0  0  0  0  0  0
  1  2  1  0  0  0  0
  2  3  1  0  0  0  0
  3  4  2  0  0  0  0
  4  5  1  0  0  0  0
  5  6  2  0  0  0  0
  6  7  1  0  0  0  0
  6 22  1  0  0  0  0
  7  8  2  0  0  0  0
  8  9  1  0  0  0  0
  8 11  1  0  0  0  0
  9 10  3  0  0  0  0
 11 12  2  0  0  0  0
 12 13  1  0  0  0  0
 13 14  2  0  0  0  0
 14 15  1  0  0  0  0
 14 19  1  0  0  0  0
 15 16  1  0  0  0  0
 15 18  2  0  0  0  0
 16 17  1  0  0  0  0
 18 11  1  0  0  0  0
 19 20  1  0  0  0  0
 20 21  1  0  0  0  0
 21 13  1  0  0  0  0
 22 23  2  0  0  0  0
 23  3  1  0  0  0  0
M  END
>  <zinc_id>
ZINC000066091379

>  <smiles>
COc1ccc(/C=C(\C#N)c2cc(OC)c3c(c2)OCO3)cc1

$$$$
