
 OpenBabel07162211283D

 23 25  0  0  0  0  0  0  0  0999 V2000
    4.4910    3.1836    0.0063 C   0  0  0  0  0  0  0  0  0  0  0  0
    5.1706    1.9367    0.1348 O   0  0  0  0  0  0  0  0  0  0  0  0
    4.5710    0.7470   -0.2713 C   0  0  0  0  0  0  0  0  0  0  0  0
    3.6388    0.8138   -1.2821 C   0  0  0  0  0  0  0  0  0  0  0  0
    2.6985   -0.1998   -1.4199 C   0  0  0  0  0  0  0  0  0  0  0  0
    2.4874   -1.1384   -0.4202 C   0  0  0  0  0  0  0  0  0  0  0  0
    1.1249   -1.5304   -0.0423 C   0  0  0  0  0  0  0  0  0  0  0  0
    0.8813   -2.2334    1.1802 C   0  0  0  0  0  0  0  0  0  0  0  0
    0.5877   -3.0268    1.9848 N   0  0  0  0  0  0  0  0  0  0  0  0
    0.0844   -1.2099   -0.8054 C   0  0  0  0  0  0  0  0  0  0  0  0
   -1.2259   -0.9369   -0.1969 C   0  0  0  0  0  0  0  0  0  0  0  0
   -2.3231   -1.2403   -0.9948 C   0  0  0  0  0  0  0  0  0  0  0  0
   -3.5672   -0.6654   -0.7686 C   0  0  0  0  0  0  0  0  0  0  0  0
   -3.6196    0.4776    0.0188 C   0  0  0  0  0  0  0  0  0  0  0  0
   -2.4790    0.9801    0.6254 C   0  0  0  0  0  0  0  0  0  0  0  0
   -2.4800    2.3186    1.0326 O   0  0  0  0  0  0  0  0  0  0  0  0
   -1.3420    3.1290    0.7464 C   0  0  0  0  0  0  0  0  0  0  0  0
   -1.3530    0.2011    0.5892 C   0  0  0  0  0  0  0  0  0  0  0  0
   -4.9712    0.7172    0.2491 O   0  0  0  0  0  0  0  0  0  0  0  0
   -5.6611    0.1601   -0.8493 C   0  0  0  0  0  0  0  0  0  0  0  0
   -4.8181   -0.8499   -1.3524 O   0  0  0  0  0  0  0  0  0  0  0  0
    3.4928   -1.2276    0.5317 C   0  0  0  0  0  0  0  0  0  0  0  0
    4.6117   -0.4059    0.4689 C   0  0  0  0  0  0  0  0  0  0  0  0
  1  2  1  0  0  0  0
  2  3  1  0  0  0  0
  3  4  2  0  0  0  0
  4  5  1  0  0  0  0
  5  6  2  0  0  0  0
  6  7  1  0  0  0  0
  6 22  1  0  0  0  0
  7  8  1  0  0  0  0
  7 10  2  0  0  0  0
  8  9  3  0  0  0  0
 10 11  1  0  0  0  0
 11 12  2  0  0  0  0
 12 13  1  0  0  0  0
 13 14  2  0  0  0  0
 14 15  1  0  0  0  0
 14 19  1  0  0  0  0
 15 16  1  0  0  0  0
 15 18  2  0  0  0  0
 16 17  1  0  0  0  0
 18 11  1  0  0  0  0
 19 20  1  0  0  0  0
 20 21  1  0  0  0  0
 21 13  1  0  0  0  0
 22 23  2  0  0  0  0
 23  3  1  0  0  0  0
M  END
>  <zinc_id>
ZINC000066091380

>  <smiles>
COc1ccc(/C(C#N)=C/c2cc(OC)c3c(c2)OCO3)cc1

$$$$
