
 OpenBabel07162211283D

 27 29  0  0  0  0  0  0  0  0999 V2000
    3.9085    3.4404   -0.1274 C   0  0  0  0  0  0  0  0  0  0  0  0
    3.8864    2.1741   -0.7457 O   0  0  0  0  0  0  0  0  0  0  0  0
    3.6252    0.9951   -0.0400 C   0  0  0  0  0  0  0  0  0  0  0  0
    2.3435    0.7509    0.3972 C   0  0  0  0  0  0  0  0  0  0  0  0
    1.9406   -0.5357    0.7358 C   0  0  0  0  0  0  0  0  0  0  0  0
    0.5196   -0.6902    1.0641 C   0  0  0  0  0  0  0  0  0  0  0  0
   -0.3634   -1.1626    0.1858 C   0  0  0  0  0  0  0  0  0  0  0  0
    0.1486   -2.1789   -0.7061 C   0  0  0  0  0  0  0  0  0  0  0  0
    0.6016   -2.9183   -1.4882 N   0  0  0  0  0  0  0  0  0  0  0  0
   -1.6749   -0.5402   -0.0218 C   0  0  0  0  0  0  0  0  0  0  0  0
   -2.8473   -1.2840    0.0325 C   0  0  0  0  0  0  0  0  0  0  0  0
   -4.0697   -0.6712   -0.2156 C   0  0  0  0  0  0  0  0  0  0  0  0
   -5.2520   -1.3626   -0.3486 O   0  0  0  0  0  0  0  0  0  0  0  0
   -6.2539   -1.0895   -1.2920 C   0  0  0  0  0  0  0  0  0  0  0  0
   -4.1208    0.6901    0.0509 C   0  0  0  0  0  0  0  0  0  0  0  0
   -5.2712    1.3036    0.5537 O   0  0  0  0  0  0  0  0  0  0  0  0
   -5.3817    1.3136    1.9750 C   0  0  0  0  0  0  0  0  0  0  0  0
   -2.9872    1.4534   -0.1982 C   0  0  0  0  0  0  0  0  0  0  0  0
   -2.9867    2.8207    0.0957 O   0  0  0  0  0  0  0  0  0  0  0  0
   -2.5587    3.2883    1.3724 C   0  0  0  0  0  0  0  0  0  0  0  0
   -1.8095    0.7701   -0.4639 C   0  0  0  0  0  0  0  0  0  0  0  0
    2.8282   -1.5772    0.7087 C   0  0  0  0  0  0  0  0  0  0  0  0
    4.0794   -1.3199    0.1727 C   0  0  0  0  0  0  0  0  0  0  0  0
    4.3922   -0.0951   -0.3882 C   0  0  0  0  0  0  0  0  0  0  0  0
    5.7353   -0.1521   -0.7018 O   0  0  0  0  0  0  0  0  0  0  0  0
    6.3303   -1.3369   -0.2346 C   0  0  0  0  0  0  0  0  0  0  0  0
    5.2374   -2.0858    0.2733 O   0  0  0  0  0  0  0  0  0  0  0  0
  1  2  1  0  0  0  0
  2  3  1  0  0  0  0
  3  4  2  0  0  0  0
  4  5  1  0  0  0  0
  5  6  1  0  0  0  0
  5 22  2  0  0  0  0
  6  7  2  0  0  0  0
  7  8  1  0  0  0  0
  7 10  1  0  0  0  0
  8  9  3  0  0  0  0
 10 11  2  0  0  0  0
 11 12  1  0  0  0  0
 12 13  1  0  0  0  0
 12 15  2  0  0  0  0
 13 14  1  0  0  0  0
 15 16  1  0  0  0  0
 15 18  1  0  0  0  0
 16 17  1  0  0  0  0
 18 19  1  0  0  0  0
 18 21  2  0  0  0  0
 19 20  1  0  0  0  0
 21 10  1  0  0  0  0
 22 23  1  0  0  0  0
 23 24  2  0  0  0  0
 24 25  1  0  0  0  0
 24  3  1  0  0  0  0
 25 26  1  0  0  0  0
 26 27  1  0  0  0  0
 27 23  1  0  0  0  0
M  END
>  <zinc_id>
ZINC000066091381

>  <smiles>
COc1cc(/C(C#N)=C/c2cc(OC)c3c(c2)OCO3)cc(OC)c1OC

$$$$
