
 OpenBabel07162211283D

 26 29  0  0  0  0  0  0  0  0999 V2000
    3.2999   -3.2834   -0.8780 C   0  0  0  0  0  0  0  0  0  0  0  0
    4.1629   -2.2149   -0.5401 O   0  0  0  0  0  0  0  0  0  0  0  0
    3.6998   -0.9956   -0.0534 C   0  0  0  0  0  0  0  0  0  0  0  0
    2.3458   -0.7941    0.1824 C   0  0  0  0  0  0  0  0  0  0  0  0
    1.8945    0.4273    0.6567 C   0  0  0  0  0  0  0  0  0  0  0  0
    0.4780    0.6228    0.8934 C   0  0  0  0  0  0  0  0  0  0  0  0
   -0.3730    0.0789    0.0244 C   0  0  0  0  0  0  0  0  0  0  0  0
   -0.0275    0.0399   -1.3781 C   0  0  0  0  0  0  0  0  0  0  0  0
    0.2735   -0.4260   -2.4019 N   0  0  0  0  0  0  0  0  0  0  0  0
   -1.7743    0.0674    0.3930 C   0  0  0  0  0  0  0  0  0  0  0  0
   -2.4454    1.1972    0.8461 C   0  0  0  0  0  0  0  0  0  0  0  0
   -3.8152    1.3018    0.6386 C   0  0  0  0  0  0  0  0  0  0  0  0
   -4.5436    0.1447    0.4437 C   0  0  0  0  0  0  0  0  0  0  0  0
   -3.8742   -1.0683    0.3982 C   0  0  0  0  0  0  0  0  0  0  0  0
   -4.5984   -2.2426    0.5937 O   0  0  0  0  0  0  0  0  0  0  0  0
   -4.4751   -3.2873   -0.3532 C   0  0  0  0  0  0  0  0  0  0  0  0
   -2.4912   -1.1162    0.4637 C   0  0  0  0  0  0  0  0  0  0  0  0
   -5.7719    0.4858   -0.1281 O   0  0  0  0  0  0  0  0  0  0  0  0
   -5.8298    1.8958   -0.3227 C   0  0  0  0  0  0  0  0  0  0  0  0
   -4.6890    2.3518    0.3719 O   0  0  0  0  0  0  0  0  0  0  0  0
    2.8722    1.3119    1.0741 C   0  0  0  0  0  0  0  0  0  0  0  0
    4.2063    1.1709    0.7123 C   0  0  0  0  0  0  0  0  0  0  0  0
    4.5759    0.0782   -0.0619 C   0  0  0  0  0  0  0  0  0  0  0  0
    5.6342    0.4282   -0.9027 O   0  0  0  0  0  0  0  0  0  0  0  0
    6.0090    1.7492   -0.6047 C   0  0  0  0  0  0  0  0  0  0  0  0
    5.2566    2.0766    0.5377 O   0  0  0  0  0  0  0  0  0  0  0  0
  1  2  1  0  0  0  0
  2  3  1  0  0  0  0
  3  4  2  0  0  0  0
  4  5  1  0  0  0  0
  5  6  1  0  0  0  0
  5 21  2  0  0  0  0
  6  7  2  0  0  0  0
  7  8  1  0  0  0  0
  7 10  1  0  0  0  0
  8  9  3  0  0  0  0
 10 11  2  0  0  0  0
 11 12  1  0  0  0  0
 12 13  2  0  0  0  0
 13 14  1  0  0  0  0
 13 18  1  0  0  0  0
 14 15  1  0  0  0  0
 14 17  2  0  0  0  0
 15 16  1  0  0  0  0
 17 10  1  0  0  0  0
 18 19  1  0  0  0  0
 19 20  1  0  0  0  0
 20 12  1  0  0  0  0
 21 22  1  0  0  0  0
 22 23  2  0  0  0  0
 23 24  1  0  0  0  0
 23  3  1  0  0  0  0
 24 25  1  0  0  0  0
 25 26  1  0  0  0  0
 26 22  1  0  0  0  0
M  END
>  <zinc_id>
ZINC000066091382

>  <smiles>
COc1cc(/C=C(\C#N)c2cc(OC)c3c(c2)OCO3)cc2c1OCO2

$$$$
