
 OpenBabel07162211283D

 24 25  0  0  0  0  0  0  0  0999 V2000
   -4.1645    1.6778    2.4550 C   0  0  0  0  0  0  0  0  0  0  0  0
   -4.5985    1.8844    1.1132 O   0  0  0  0  0  0  0  0  0  0  0  0
   -4.3466    0.9542    0.1013 C   0  0  0  0  0  0  0  0  0  0  0  0
   -4.5261   -0.4021    0.3395 C   0  0  0  0  0  0  0  0  0  0  0  0
   -3.6971   -1.3608   -0.2302 C   0  0  0  0  0  0  0  0  0  0  0  0
   -2.6484   -0.9770   -1.0567 C   0  0  0  0  0  0  0  0  0  0  0  0
   -1.3254   -1.6107   -0.9553 C   0  0  0  0  0  0  0  0  0  0  0  0
   -0.6816   -1.9652   -2.1901 C   0  0  0  0  0  0  0  0  0  0  0  0
   -0.2021   -2.5244   -3.0893 N   0  0  0  0  0  0  0  0  0  0  0  0
   -0.5541   -1.4305    0.0903 C   0  0  0  0  0  0  0  0  0  0  0  0
    0.8748   -1.1431    0.0252 C   0  0  0  0  0  0  0  0  0  0  0  0
    1.4436   -0.3264   -0.9380 C   0  0  0  0  0  0  0  0  0  0  0  0
    2.3201    0.7026   -0.6156 C   0  0  0  0  0  0  0  0  0  0  0  0
    3.0083    1.3383   -1.6547 O   0  0  0  0  0  0  0  0  0  0  0  0
    4.0607    0.6058   -2.2723 C   0  0  0  0  0  0  0  0  0  0  0  0
    2.9198    0.6936    0.6377 C   0  0  0  0  0  0  0  0  0  0  0  0
    3.5712    1.8374    1.0484 O   0  0  0  0  0  0  0  0  0  0  0  0
    2.9254    3.0704    1.3039 C   0  0  0  0  0  0  0  0  0  0  0  0
    2.6740   -0.3888    1.4756 C   0  0  0  0  0  0  0  0  0  0  0  0
    3.1840   -0.2500    2.7706 O   0  0  0  0  0  0  0  0  0  0  0  0
    4.4992   -0.7386    3.0199 C   0  0  0  0  0  0  0  0  0  0  0  0
    1.5905   -1.2191    1.2150 C   0  0  0  0  0  0  0  0  0  0  0  0
   -2.7716    0.2976   -1.5984 C   0  0  0  0  0  0  0  0  0  0  0  0
   -3.5556    1.2747   -0.9950 C   0  0  0  0  0  0  0  0  0  0  0  0
  1  2  1  0  0  0  0
  2  3  1  0  0  0  0
  3  4  2  0  0  0  0
  4  5  1  0  0  0  0
  5  6  2  0  0  0  0
  6  7  1  0  0  0  0
  6 23  1  0  0  0  0
  7  8  1  0  0  0  0
  7 10  2  0  0  0  0
  8  9  3  0  0  0  0
 10 11  1  0  0  0  0
 11 12  2  0  0  0  0
 12 13  1  0  0  0  0
 13 14  1  0  0  0  0
 13 16  2  0  0  0  0
 14 15  1  0  0  0  0
 16 17  1  0  0  0  0
 16 19  1  0  0  0  0
 17 18  1  0  0  0  0
 19 20  1  0  0  0  0
 19 22  2  0  0  0  0
 20 21  1  0  0  0  0
 22 11  1  0  0  0  0
 23 24  2  0  0  0  0
 24  3  1  0  0  0  0
M  END
>  <zinc_id>
ZINC000000072222

>  <smiles>
COc1ccc(/C(C#N)=C/c2cc(OC)c(OC)c(OC)c2)cc1

$$$$
