
 OpenBabel07162211283D

 27 29  0  0  0  0  0  0  0  0999 V2000
   -4.4051   -3.1413    0.9617 C   0  0  0  0  0  0  0  0  0  0  0  0
   -4.5871   -1.8101    1.3959 O   0  0  0  0  0  0  0  0  0  0  0  0
   -3.9671   -0.8175    0.6396 C   0  0  0  0  0  0  0  0  0  0  0  0
   -2.6669   -0.9785    0.1855 C   0  0  0  0  0  0  0  0  0  0  0  0
   -2.0583   -0.0373   -0.6339 C   0  0  0  0  0  0  0  0  0  0  0  0
   -0.6234    0.2169   -0.4540 C   0  0  0  0  0  0  0  0  0  0  0  0
   -0.1473    0.8532    0.7486 C   0  0  0  0  0  0  0  0  0  0  0  0
    0.1627    0.9963    1.8619 N   0  0  0  0  0  0  0  0  0  0  0  0
    0.2111   -0.4923   -1.2054 C   0  0  0  0  0  0  0  0  0  0  0  0
    1.6336   -0.4560   -0.8629 C   0  0  0  0  0  0  0  0  0  0  0  0
    2.3837   -1.6008   -0.6795 C   0  0  0  0  0  0  0  0  0  0  0  0
    3.7122   -1.5612   -0.2906 C   0  0  0  0  0  0  0  0  0  0  0  0
    4.3130   -2.6278    0.3773 O   0  0  0  0  0  0  0  0  0  0  0  0
    5.7245   -2.7567    0.3764 C   0  0  0  0  0  0  0  0  0  0  0  0
    4.2823   -0.2992   -0.1843 C   0  0  0  0  0  0  0  0  0  0  0  0
    5.6773   -0.2252   -0.2314 O   0  0  0  0  0  0  0  0  0  0  0  0
    6.2731    0.9035    0.3756 C   0  0  0  0  0  0  0  0  0  0  0  0
    3.5054    0.8486   -0.0906 C   0  0  0  0  0  0  0  0  0  0  0  0
    4.0892    2.1051   -0.0149 O   0  0  0  0  0  0  0  0  0  0  0  0
    3.2546    3.1594    0.4603 C   0  0  0  0  0  0  0  0  0  0  0  0
    2.2358    0.7774   -0.6510 C   0  0  0  0  0  0  0  0  0  0  0  0
   -2.9019    0.8891   -1.2339 C   0  0  0  0  0  0  0  0  0  0  0  0
   -4.2204    1.0182   -0.8614 C   0  0  0  0  0  0  0  0  0  0  0  0
   -4.6854    0.2977    0.2306 C   0  0  0  0  0  0  0  0  0  0  0  0
   -5.7547    0.9534    0.8233 O   0  0  0  0  0  0  0  0  0  0  0  0
   -6.1649    1.9352   -0.0966 C   0  0  0  0  0  0  0  0  0  0  0  0
   -5.2759    1.8499   -1.2062 O   0  0  0  0  0  0  0  0  0  0  0  0
  1  2  1  0  0  0  0
  2  3  1  0  0  0  0
  3  4  2  0  0  0  0
  4  5  1  0  0  0  0
  5  6  1  0  0  0  0
  5 22  2  0  0  0  0
  6  7  1  0  0  0  0
  6  9  2  0  0  0  0
  7  8  3  0  0  0  0
  9 10  1  0  0  0  0
 10 11  2  0  0  0  0
 11 12  1  0  0  0  0
 12 13  1  0  0  0  0
 12 15  2  0  0  0  0
 13 14  1  0  0  0  0
 15 16  1  0  0  0  0
 15 18  1  0  0  0  0
 16 17  1  0  0  0  0
 18 19  1  0  0  0  0
 18 21  2  0  0  0  0
 19 20  1  0  0  0  0
 21 10  1  0  0  0  0
 22 23  1  0  0  0  0
 23 24  2  0  0  0  0
 24 25  1  0  0  0  0
 24  3  1  0  0  0  0
 25 26  1  0  0  0  0
 26 27  1  0  0  0  0
 27 23  1  0  0  0  0
M  END
>  <zinc_id>
ZINC000066091622

>  <smiles>
COc1cc(/C=C(\C#N)c2cc(OC)c3c(c2)OCO3)cc(OC)c1OC

$$$$
