
 OpenBabel07162211283D

 25 26  0  0  0  0  0  0  0  0999 V2000
   -5.0011    2.1653    0.4962 C   0  0  0  0  0  0  0  0  0  0  0  0
   -5.6659    0.9101    0.4166 O   0  0  0  0  0  0  0  0  0  0  0  0
   -4.9470   -0.2542    0.1269 C   0  0  0  0  0  0  0  0  0  0  0  0
   -4.3112   -0.9847    1.1238 C   0  0  0  0  0  0  0  0  0  0  0  0
   -3.0469   -1.5286    0.9290 C   0  0  0  0  0  0  0  0  0  0  0  0
   -2.3901   -1.3676   -0.2855 C   0  0  0  0  0  0  0  0  0  0  0  0
   -0.9529   -1.0713   -0.3566 C   0  0  0  0  0  0  0  0  0  0  0  0
   -0.2557   -0.6196    0.6583 C   0  0  0  0  0  0  0  0  0  0  0  0
    1.0997   -0.1271    0.5972 C   0  0  0  0  0  0  0  0  0  0  0  0
    1.4124    1.2086    0.8184 C   0  0  0  0  0  0  0  0  0  0  0  0
    2.5165    1.7752    0.1945 C   0  0  0  0  0  0  0  0  0  0  0  0
    2.6731    3.1569    0.1042 O   0  0  0  0  0  0  0  0  0  0  0  0
    3.2110    3.9092    1.1773 C   0  0  0  0  0  0  0  0  0  0  0  0
    3.3826    1.0226   -0.5889 C   0  0  0  0  0  0  0  0  0  0  0  0
    3.9485    1.5546   -1.7517 O   0  0  0  0  0  0  0  0  0  0  0  0
    3.0796    1.7442   -2.8574 C   0  0  0  0  0  0  0  0  0  0  0  0
    3.2253   -0.3541   -0.4960 C   0  0  0  0  0  0  0  0  0  0  0  0
    4.1900   -1.1430   -1.1134 O   0  0  0  0  0  0  0  0  0  0  0  0
    4.8701   -2.1192   -0.3288 C   0  0  0  0  0  0  0  0  0  0  0  0
    2.1675   -0.9240    0.2022 C   0  0  0  0  0  0  0  0  0  0  0  0
    2.0393   -2.2945    0.3111 O   0  0  0  0  0  0  0  0  0  0  0  0
    1.6625   -3.1438   -0.7496 C   0  0  0  0  0  0  0  0  0  0  0  0
   -3.2280   -1.0719   -1.3555 C   0  0  0  0  0  0  0  0  0  0  0  0
   -4.4674   -0.4741   -1.1594 C   0  0  0  0  0  0  0  0  0  0  0  0
   -5.2121    0.0308   -2.2292 O   0  0  0  0  0  0  0  0  0  0  0  0
  1  2  1  0  0  0  0
  2  3  1  0  0  0  0
  3  4  2  0  0  0  0
  4  5  1  0  0  0  0
  5  6  2  0  0  0  0
  6  7  1  0  0  0  0
  6 23  1  0  0  0  0
  7  8  2  0  0  0  0
  8  9  1  0  0  0  0
  9 10  2  0  0  0  0
 10 11  1  0  0  0  0
 11 12  1  0  0  0  0
 11 14  2  0  0  0  0
 12 13  1  0  0  0  0
 14 15  1  0  0  0  0
 14 17  1  0  0  0  0
 15 16  1  0  0  0  0
 17 18  1  0  0  0  0
 17 20  2  0  0  0  0
 18 19  1  0  0  0  0
 20 21  1  0  0  0  0
 20  9  1  0  0  0  0
 21 22  1  0  0  0  0
 23 24  2  0  0  0  0
 24 25  1  0  0  0  0
 24  3  1  0  0  0  0
M  END
>  <zinc_id>
ZINC000066252292

>  <smiles>
COc1ccc(/C=C/c2cc(OC)c(OC)c(OC)c2OC)cc1O

$$$$
