
 OpenBabel07162211283D

 24 26  0  0  0  0  0  0  0  0999 V2000
    7.0281   -0.5406    0.8578 C   0  0  0  0  0  0  0  0  0  0  0  0
    6.3572    0.5451    0.2482 O   0  0  0  0  0  0  0  0  0  0  0  0
    5.0054    0.3629   -0.0500 C   0  0  0  0  0  0  0  0  0  0  0  0
    4.0383    0.3282    0.9438 C   0  0  0  0  0  0  0  0  0  0  0  0
    2.7087    0.1758    0.5822 C   0  0  0  0  0  0  0  0  0  0  0  0
    2.3331   -0.0587   -0.7339 C   0  0  0  0  0  0  0  0  0  0  0  0
    1.0166    0.4577   -1.1155 C   0  0  0  0  0  0  0  0  0  0  0  0
   -0.0819   -0.2596   -1.0936 C   0  0  0  0  0  0  0  0  0  0  0  0
   -1.3361    0.1467   -0.4935 C   0  0  0  0  0  0  0  0  0  0  0  0
   -1.9560    1.3532   -0.7230 C   0  0  0  0  0  0  0  0  0  0  0  0
   -3.2836    1.5706   -0.3843 C   0  0  0  0  0  0  0  0  0  0  0  0
   -4.0500    0.4810    0.0101 C   0  0  0  0  0  0  0  0  0  0  0  0
   -3.4269   -0.6849    0.4254 C   0  0  0  0  0  0  0  0  0  0  0  0
   -4.2109   -1.8260    0.6252 O   0  0  0  0  0  0  0  0  0  0  0  0
   -4.4023   -2.6420   -0.5282 C   0  0  0  0  0  0  0  0  0  0  0  0
   -2.0606   -0.8054    0.2122 C   0  0  0  0  0  0  0  0  0  0  0  0
   -1.4018   -1.7762    0.9457 O   0  0  0  0  0  0  0  0  0  0  0  0
   -1.1703   -1.4978    2.3168 C   0  0  0  0  0  0  0  0  0  0  0  0
   -5.3724    0.9354   -0.0032 O   0  0  0  0  0  0  0  0  0  0  0  0
   -5.3538    2.3449    0.1142 C   0  0  0  0  0  0  0  0  0  0  0  0
   -4.0195    2.7330   -0.1592 O   0  0  0  0  0  0  0  0  0  0  0  0
    3.3398   -0.3077   -1.6279 C   0  0  0  0  0  0  0  0  0  0  0  0
    4.6711   -0.2049   -1.2735 C   0  0  0  0  0  0  0  0  0  0  0  0
    5.6277   -0.8307   -2.0730 O   0  0  0  0  0  0  0  0  0  0  0  0
  1  2  1  0  0  0  0
  2  3  1  0  0  0  0
  3  4  2  0  0  0  0
  4  5  1  0  0  0  0
  5  6  2  0  0  0  0
  6  7  1  0  0  0  0
  6 22  1  0  0  0  0
  7  8  2  0  0  0  0
  8  9  1  0  0  0  0
  9 10  2  0  0  0  0
 10 11  1  0  0  0  0
 11 12  2  0  0  0  0
 12 13  1  0  0  0  0
 12 19  1  0  0  0  0
 13 14  1  0  0  0  0
 13 16  2  0  0  0  0
 14 15  1  0  0  0  0
 16 17  1  0  0  0  0
 16  9  1  0  0  0  0
 17 18  1  0  0  0  0
 19 20  1  0  0  0  0
 20 21  1  0  0  0  0
 21 11  1  0  0  0  0
 22 23  2  0  0  0  0
 23 24  1  0  0  0  0
 23  3  1  0  0  0  0
M  END
>  <zinc_id>
ZINC000066258987

>  <smiles>
COc1ccc(/C=C/c2cc3c(c(OC)c2OC)OCO3)cc1O

$$$$
