
 OpenBabel07162211283D

 18 19  0  0  0  0  0  0  0  0999 V2000
    5.3701   -1.0818    0.6479 O   0  0  0  0  0  0  0  0  0  0  0  0
    4.0353   -0.8917    0.2743 C   0  0  0  0  0  0  0  0  0  0  0  0
    3.7571   -0.2585   -0.9179 C   0  0  0  0  0  0  0  0  0  0  0  0
    2.5244    0.3581   -1.0936 C   0  0  0  0  0  0  0  0  0  0  0  0
    1.6498    0.5795   -0.0467 C   0  0  0  0  0  0  0  0  0  0  0  0
    0.9738    1.8805    0.0497 C   0  0  0  0  0  0  0  0  0  0  0  0
   -0.0540    2.0333   -0.7871 C   0  0  0  0  0  0  0  0  0  0  0  0
   -1.1010    1.0209   -0.6532 C   0  0  0  0  0  0  0  0  0  0  0  0
   -0.8666   -0.3053   -0.4332 C   0  0  0  0  0  0  0  0  0  0  0  0
   -1.8886   -1.1791   -0.0887 C   0  0  0  0  0  0  0  0  0  0  0  0
   -1.7356   -2.5491   -0.3198 O   0  0  0  0  0  0  0  0  0  0  0  0
   -3.1437   -0.6530    0.1836 C   0  0  0  0  0  0  0  0  0  0  0  0
   -4.1025   -1.4489    0.7725 O   0  0  0  0  0  0  0  0  0  0  0  0
   -3.4331    0.6601   -0.1155 C   0  0  0  0  0  0  0  0  0  0  0  0
   -4.6784    1.2314    0.0755 O   0  0  0  0  0  0  0  0  0  0  0  0
   -2.3630    1.5064   -0.3329 C   0  0  0  0  0  0  0  0  0  0  0  0
    1.9934   -0.0105    1.1638 C   0  0  0  0  0  0  0  0  0  0  0  0
    3.0625   -0.8924    1.2585 C   0  0  0  0  0  0  0  0  0  0  0  0
  1  2  1  0  0  0  0
  2  3  2  0  0  0  0
  3  4  1  0  0  0  0
  4  5  2  0  0  0  0
  5  6  1  0  0  0  0
  5 17  1  0  0  0  0
  6  7  2  0  0  0  0
  7  8  1  0  0  0  0
  8  9  2  0  0  0  0
  9 10  1  0  0  0  0
 10 11  1  0  0  0  0
 10 12  2  0  0  0  0
 12 13  1  0  0  0  0
 12 14  1  0  0  0  0
 14 15  1  0  0  0  0
 14 16  2  0  0  0  0
 16  8  1  0  0  0  0
 17 18  2  0  0  0  0
 18  2  1  0  0  0  0
M  END
>  <zinc_id>
ZINC000071614385

>  <smiles>
Oc1ccc(/C=C\c2cc(O)c(O)c(O)c2)cc1

$$$$
