
 OpenBabel07162211283D

 26 27  0  0  0  0  0  0  0  0999 V2000
    2.4006   -0.4504    3.5067 C   0  0  0  0  0  0  0  0  0  0  0  0
    3.0809   -1.0679    2.4198 O   0  0  0  0  0  0  0  0  0  0  0  0
    2.8371   -0.5585    1.1395 C   0  0  0  0  0  0  0  0  0  0  0  0
    1.6560   -0.7918    0.4967 C   0  0  0  0  0  0  0  0  0  0  0  0
    1.3968   -0.4429   -0.8236 C   0  0  0  0  0  0  0  0  0  0  0  0
    0.6488   -1.4154   -1.6360 C   0  0  0  0  0  0  0  0  0  0  0  0
   -0.5320   -1.7405   -1.1071 C   0  0  0  0  0  0  0  0  0  0  0  0
   -1.4531   -0.6022   -0.9891 C   0  0  0  0  0  0  0  0  0  0  0  0
   -1.4151    0.3028    0.0401 C   0  0  0  0  0  0  0  0  0  0  0  0
   -2.5832    0.8486    0.5594 C   0  0  0  0  0  0  0  0  0  0  0  0
   -2.5862    1.8919    1.4728 O   0  0  0  0  0  0  0  0  0  0  0  0
   -2.6828    3.2533    1.0591 C   0  0  0  0  0  0  0  0  0  0  0  0
   -3.8272    0.3573    0.1878 C   0  0  0  0  0  0  0  0  0  0  0  0
   -4.8107    0.1683    1.1633 O   0  0  0  0  0  0  0  0  0  0  0  0
   -4.8119   -1.0086    1.9677 C   0  0  0  0  0  0  0  0  0  0  0  0
   -3.8731   -0.3526   -1.0037 C   0  0  0  0  0  0  0  0  0  0  0  0
   -5.1277   -0.6638   -1.5204 O   0  0  0  0  0  0  0  0  0  0  0  0
   -5.3488   -1.9530   -2.0379 C   0  0  0  0  0  0  0  0  0  0  0  0
   -2.6923   -0.7806   -1.5952 C   0  0  0  0  0  0  0  0  0  0  0  0
    2.4231    0.2588   -1.4487 C   0  0  0  0  0  0  0  0  0  0  0  0
    3.6560    0.4567   -0.8400 C   0  0  0  0  0  0  0  0  0  0  0  0
    4.7594    0.9637   -1.4902 O   0  0  0  0  0  0  0  0  0  0  0  0
    5.0704    0.7133   -2.8393 C   0  0  0  0  0  0  0  0  0  0  0  0
    3.8082    0.1615    0.5031 C   0  0  0  0  0  0  0  0  0  0  0  0
    4.9424    0.5478    1.2070 O   0  0  0  0  0  0  0  0  0  0  0  0
    5.0647    1.9041    1.6079 C   0  0  0  0  0  0  0  0  0  0  0  0
  1  2  1  0  0  0  0
  2  3  1  0  0  0  0
  3  4  2  0  0  0  0
  4  5  1  0  0  0  0
  5  6  1  0  0  0  0
  5 20  2  0  0  0  0
  6  7  2  0  0  0  0
  7  8  1  0  0  0  0
  8  9  2  0  0  0  0
  9 10  1  0  0  0  0
 10 11  1  0  0  0  0
 10 13  2  0  0  0  0
 11 12  1  0  0  0  0
 13 14  1  0  0  0  0
 13 16  1  0  0  0  0
 14 15  1  0  0  0  0
 16 17  1  0  0  0  0
 16 19  2  0  0  0  0
 17 18  1  0  0  0  0
 19  8  1  0  0  0  0
 20 21  1  0  0  0  0
 21 22  1  0  0  0  0
 21 24  2  0  0  0  0
 22 23  1  0  0  0  0
 24 25  1  0  0  0  0
 24  3  1  0  0  0  0
 25 26  1  0  0  0  0
M  END
>  <zinc_id>
ZINC000071618894

>  <smiles>
COc1cc(/C=C\c2cc(OC)c(OC)c(OC)c2)cc(OC)c1OC

$$$$
