
 OpenBabel07162211283D

 20 21  0  0  0  0  0  0  0  0999 V2000
   -3.2238    2.0814   -1.1099 O   0  0  0  0  0  0  0  0  0  0  0  0
   -2.9217    0.9298   -0.3769 C   0  0  0  0  0  0  0  0  0  0  0  0
   -1.6462    0.6742    0.1018 C   0  0  0  0  0  0  0  0  0  0  0  0
   -1.3352   -0.4798    0.8034 C   0  0  0  0  0  0  0  0  0  0  0  0
   -0.5239   -0.4355    2.0278 C   0  0  0  0  0  0  0  0  0  0  0  0
    0.3900    0.5360    2.0435 C   0  0  0  0  0  0  0  0  0  0  0  0
    1.3173    0.5419    0.9042 C   0  0  0  0  0  0  0  0  0  0  0  0
    2.2575    1.5537    0.7486 C   0  0  0  0  0  0  0  0  0  0  0  0
    3.5487    1.2965    0.3069 C   0  0  0  0  0  0  0  0  0  0  0  0
    4.6106    2.1614    0.5922 O   0  0  0  0  0  0  0  0  0  0  0  0
    3.9177   -0.0023   -0.0237 C   0  0  0  0  0  0  0  0  0  0  0  0
    5.2458   -0.4115    0.0018 O   0  0  0  0  0  0  0  0  0  0  0  0
    2.8755   -0.8862   -0.2499 C   0  0  0  0  0  0  0  0  0  0  0  0
    3.1639   -2.0443   -0.9767 O   0  0  0  0  0  0  0  0  0  0  0  0
    1.5982   -0.6323    0.2156 C   0  0  0  0  0  0  0  0  0  0  0  0
   -2.2719   -1.5031    0.7277 C   0  0  0  0  0  0  0  0  0  0  0  0
   -3.4806   -1.3285    0.0657 C   0  0  0  0  0  0  0  0  0  0  0  0
   -4.4136   -2.3506   -0.0367 O   0  0  0  0  0  0  0  0  0  0  0  0
   -3.8931   -0.0590   -0.3077 C   0  0  0  0  0  0  0  0  0  0  0  0
   -5.2152    0.3582   -0.1870 O   0  0  0  0  0  0  0  0  0  0  0  0
  1  2  1  0  0  0  0
  2  3  2  0  0  0  0
  3  4  1  0  0  0  0
  4  5  1  0  0  0  0
  4 16  2  0  0  0  0
  5  6  2  0  0  0  0
  6  7  1  0  0  0  0
  7  8  2  0  0  0  0
  8  9  1  0  0  0  0
  9 10  1  0  0  0  0
  9 11  2  0  0  0  0
 11 12  1  0  0  0  0
 11 13  1  0  0  0  0
 13 14  1  0  0  0  0
 13 15  2  0  0  0  0
 15  7  1  0  0  0  0
 16 17  1  0  0  0  0
 17 18  1  0  0  0  0
 17 19  2  0  0  0  0
 19 20  1  0  0  0  0
 19  2  1  0  0  0  0
M  END
>  <zinc_id>
ZINC000071619152

>  <smiles>
Oc1cc(/C=C\c2cc(O)c(O)c(O)c2)cc(O)c1O

$$$$
