
 OpenBabel07162211283D

 23 25  0  0  0  0  0  0  0  0999 V2000
    5.9983    2.4896    0.1162 C   0  0  0  0  0  0  0  0  0  0  0  0
    5.7659    1.1793   -0.3918 O   0  0  0  0  0  0  0  0  0  0  0  0
    4.5615    0.5154   -0.2417 C   0  0  0  0  0  0  0  0  0  0  0  0
    3.3302    1.1536   -0.2988 C   0  0  0  0  0  0  0  0  0  0  0  0
    2.2324    0.3419   -0.5518 C   0  0  0  0  0  0  0  0  0  0  0  0
    2.1836   -0.9184    0.0316 C   0  0  0  0  0  0  0  0  0  0  0  0
    1.1821   -1.9166   -0.3671 C   0  0  0  0  0  0  0  0  0  0  0  0
   -0.0316   -1.5712   -0.7293 C   0  0  0  0  0  0  0  0  0  0  0  0
   -0.8680   -2.5463   -1.3898 C   0  0  0  0  0  0  0  0  0  0  0  0
   -1.7542   -3.1386   -1.8578 N   0  0  0  0  0  0  0  0  0  0  0  0
   -0.6225   -0.4444    0.0081 C   0  0  0  0  0  0  0  0  0  0  0  0
   -1.2868   -0.7481    1.1901 C   0  0  0  0  0  0  0  0  0  0  0  0
   -2.4295   -0.0961    1.5967 C   0  0  0  0  0  0  0  0  0  0  0  0
   -3.0423    0.7962    0.7486 C   0  0  0  0  0  0  0  0  0  0  0  0
   -2.3488    1.2220   -0.3775 C   0  0  0  0  0  0  0  0  0  0  0  0
   -2.9898    2.1511   -1.2021 O   0  0  0  0  0  0  0  0  0  0  0  0
   -4.3536    2.4797   -1.0296 C   0  0  0  0  0  0  0  0  0  0  0  0
   -1.2180    0.5469   -0.7637 C   0  0  0  0  0  0  0  0  0  0  0  0
   -4.3614    0.9525    1.1140 O   0  0  0  0  0  0  0  0  0  0  0  0
   -4.6229    0.1763    2.2548 C   0  0  0  0  0  0  0  0  0  0  0  0
   -3.3587   -0.3451    2.6120 O   0  0  0  0  0  0  0  0  0  0  0  0
    3.4186   -1.4469    0.3903 C   0  0  0  0  0  0  0  0  0  0  0  0
    4.6156   -0.8329    0.0451 C   0  0  0  0  0  0  0  0  0  0  0  0
  1  2  1  0  0  0  0
  2  3  1  0  0  0  0
  3  4  2  0  0  0  0
  4  5  1  0  0  0  0
  5  6  2  0  0  0  0
  6  7  1  0  0  0  0
  6 22  1  0  0  0  0
  7  8  2  0  0  0  0
  8  9  1  0  0  0  0
  8 11  1  0  0  0  0
  9 10  3  0  0  0  0
 11 12  2  0  0  0  0
 12 13  1  0  0  0  0
 13 14  2  0  0  0  0
 14 15  1  0  0  0  0
 14 19  1  0  0  0  0
 15 16  1  0  0  0  0
 15 18  2  0  0  0  0
 16 17  1  0  0  0  0
 18 11  1  0  0  0  0
 19 20  1  0  0  0  0
 20 21  1  0  0  0  0
 21 13  1  0  0  0  0
 22 23  2  0  0  0  0
 23  3  1  0  0  0  0
M  END
>  <zinc_id>
ZINC000096137279

>  <smiles>
COc1ccc(/C=C(/C#N)c2cc(OC)c3c(c2)OCO3)cc1

$$$$
