
 OpenBabel07162211283D

 23 25  0  0  0  0  0  0  0  0999 V2000
    4.7736    3.1979   -0.3472 C   0  0  0  0  0  0  0  0  0  0  0  0
    4.6224    1.8015   -0.3497 O   0  0  0  0  0  0  0  0  0  0  0  0
    3.7117    1.1351    0.4788 C   0  0  0  0  0  0  0  0  0  0  0  0
    2.3551    1.4393    0.4661 C   0  0  0  0  0  0  0  0  0  0  0  0
    1.4156    0.4147    0.4691 C   0  0  0  0  0  0  0  0  0  0  0  0
    1.7807   -0.9207    0.5250 C   0  0  0  0  0  0  0  0  0  0  0  0
    1.0854   -1.9592   -0.2470 C   0  0  0  0  0  0  0  0  0  0  0  0
    1.7743   -3.1855   -0.5821 C   0  0  0  0  0  0  0  0  0  0  0  0
    2.4400   -4.1219   -0.7894 N   0  0  0  0  0  0  0  0  0  0  0  0
    0.1246   -1.6012   -1.1006 C   0  0  0  0  0  0  0  0  0  0  0  0
   -0.8224   -0.6032   -0.5841 C   0  0  0  0  0  0  0  0  0  0  0  0
   -1.2172    0.3572   -1.5102 C   0  0  0  0  0  0  0  0  0  0  0  0
   -2.1535    1.2727   -1.0543 C   0  0  0  0  0  0  0  0  0  0  0  0
   -3.1920    0.7522   -0.2918 C   0  0  0  0  0  0  0  0  0  0  0  0
   -3.0707   -0.4852    0.3262 C   0  0  0  0  0  0  0  0  0  0  0  0
   -4.2331   -1.1557    0.7208 O   0  0  0  0  0  0  0  0  0  0  0  0
   -4.5429   -1.4057    2.0774 C   0  0  0  0  0  0  0  0  0  0  0  0
   -1.8487   -1.1046    0.2089 C   0  0  0  0  0  0  0  0  0  0  0  0
   -4.1330    1.7770   -0.1565 O   0  0  0  0  0  0  0  0  0  0  0  0
   -3.5336    3.0283   -0.4840 C   0  0  0  0  0  0  0  0  0  0  0  0
   -2.4311    2.6086   -1.2853 O   0  0  0  0  0  0  0  0  0  0  0  0
    3.0880   -1.1406    0.9461 C   0  0  0  0  0  0  0  0  0  0  0  0
    4.0068   -0.1010    1.0440 C   0  0  0  0  0  0  0  0  0  0  0  0
  1  2  1  0  0  0  0
  2  3  1  0  0  0  0
  3  4  2  0  0  0  0
  4  5  1  0  0  0  0
  5  6  2  0  0  0  0
  6  7  1  0  0  0  0
  6 22  1  0  0  0  0
  7  8  1  0  0  0  0
  7 10  2  0  0  0  0
  8  9  3  0  0  0  0
 10 11  1  0  0  0  0
 11 12  2  0  0  0  0
 12 13  1  0  0  0  0
 13 14  2  0  0  0  0
 14 15  1  0  0  0  0
 14 19  1  0  0  0  0
 15 16  1  0  0  0  0
 15 18  2  0  0  0  0
 16 17  1  0  0  0  0
 18 11  1  0  0  0  0
 19 20  1  0  0  0  0
 20 21  1  0  0  0  0
 21 13  1  0  0  0  0
 22 23  2  0  0  0  0
 23  3  1  0  0  0  0
M  END
>  <zinc_id>
ZINC000096137280

>  <smiles>
COc1ccc(/C(C#N)=C\c2cc(OC)c3c(c2)OCO3)cc1

$$$$
