
 OpenBabel07162211283D

 27 29  0  0  0  0  0  0  0  0999 V2000
   -3.5653    3.1157   -1.2551 C   0  0  0  0  0  0  0  0  0  0  0  0
   -3.0660    1.8034   -1.4472 O   0  0  0  0  0  0  0  0  0  0  0  0
   -2.9897    0.8776   -0.4030 C   0  0  0  0  0  0  0  0  0  0  0  0
   -1.8043    0.2567   -0.1303 C   0  0  0  0  0  0  0  0  0  0  0  0
   -1.6751   -0.8619    0.6737 C   0  0  0  0  0  0  0  0  0  0  0  0
   -0.7657   -1.9668    0.3409 C   0  0  0  0  0  0  0  0  0  0  0  0
    0.2900   -1.6536   -0.4081 C   0  0  0  0  0  0  0  0  0  0  0  0
    0.8850   -2.7363   -1.1599 C   0  0  0  0  0  0  0  0  0  0  0  0
    1.5027   -3.6305   -1.5867 N   0  0  0  0  0  0  0  0  0  0  0  0
    1.1057   -0.5440    0.1056 C   0  0  0  0  0  0  0  0  0  0  0  0
    2.1747   -0.8991    0.9227 C   0  0  0  0  0  0  0  0  0  0  0  0
    3.3528   -0.1640    0.9544 C   0  0  0  0  0  0  0  0  0  0  0  0
    4.5623   -0.7105    1.3957 O   0  0  0  0  0  0  0  0  0  0  0  0
    4.9890   -1.8956    0.7276 C   0  0  0  0  0  0  0  0  0  0  0  0
    3.4911    0.9107    0.0834 C   0  0  0  0  0  0  0  0  0  0  0  0
    4.7105    1.5629   -0.0795 O   0  0  0  0  0  0  0  0  0  0  0  0
    5.7932    0.9763   -0.7557 C   0  0  0  0  0  0  0  0  0  0  0  0
    2.2999    1.4201   -0.4146 C   0  0  0  0  0  0  0  0  0  0  0  0
    2.2997    2.6811   -0.9991 O   0  0  0  0  0  0  0  0  0  0  0  0
    3.1605    3.6774   -0.5006 C   0  0  0  0  0  0  0  0  0  0  0  0
    1.3848    0.4558   -0.8209 C   0  0  0  0  0  0  0  0  0  0  0  0
   -2.8426   -1.2271    1.3370 C   0  0  0  0  0  0  0  0  0  0  0  0
   -4.0482   -0.5720    1.1155 C   0  0  0  0  0  0  0  0  0  0  0  0
   -4.1648    0.3118    0.0497 C   0  0  0  0  0  0  0  0  0  0  0  0
   -5.4687    0.2333   -0.4469 O   0  0  0  0  0  0  0  0  0  0  0  0
   -6.2391   -0.6079    0.3909 C   0  0  0  0  0  0  0  0  0  0  0  0
   -5.3726   -0.8135    1.4957 O   0  0  0  0  0  0  0  0  0  0  0  0
  1  2  1  0  0  0  0
  2  3  1  0  0  0  0
  3  4  2  0  0  0  0
  4  5  1  0  0  0  0
  5  6  1  0  0  0  0
  5 22  2  0  0  0  0
  6  7  2  0  0  0  0
  7  8  1  0  0  0  0
  7 10  1  0  0  0  0
  8  9  3  0  0  0  0
 10 11  2  0  0  0  0
 11 12  1  0  0  0  0
 12 13  1  0  0  0  0
 12 15  2  0  0  0  0
 13 14  1  0  0  0  0
 15 16  1  0  0  0  0
 15 18  1  0  0  0  0
 16 17  1  0  0  0  0
 18 19  1  0  0  0  0
 18 21  2  0  0  0  0
 19 20  1  0  0  0  0
 21 10  1  0  0  0  0
 22 23  1  0  0  0  0
 23 24  2  0  0  0  0
 24 25  1  0  0  0  0
 24  3  1  0  0  0  0
 25 26  1  0  0  0  0
 26 27  1  0  0  0  0
 27 23  1  0  0  0  0
M  END
>  <zinc_id>
ZINC000096137282

>  <smiles>
COc1cc(/C(C#N)=C\c2cc(OC)c3c(c2)OCO3)cc(OC)c1OC

$$$$
