
 OpenBabel07162211283D

 27 29  0  0  0  0  0  0  0  0999 V2000
   -5.0421   -2.5694    0.2533 C   0  0  0  0  0  0  0  0  0  0  0  0
   -4.7964   -1.4347    1.0782 O   0  0  0  0  0  0  0  0  0  0  0  0
   -3.6164   -0.6947    0.9503 C   0  0  0  0  0  0  0  0  0  0  0  0
   -2.4949   -1.2211    0.3293 C   0  0  0  0  0  0  0  0  0  0  0  0
   -1.4925   -0.4182   -0.2004 C   0  0  0  0  0  0  0  0  0  0  0  0
   -0.7621   -0.9259   -1.3686 C   0  0  0  0  0  0  0  0  0  0  0  0
   -1.4315   -1.6198   -2.4455 C   0  0  0  0  0  0  0  0  0  0  0  0
   -2.1160   -1.9893   -3.3125 N   0  0  0  0  0  0  0  0  0  0  0  0
    0.3255   -0.2680   -1.6939 C   0  0  0  0  0  0  0  0  0  0  0  0
    1.2407    0.2507   -0.6696 C   0  0  0  0  0  0  0  0  0  0  0  0
    1.5410   -0.4667    0.4813 C   0  0  0  0  0  0  0  0  0  0  0  0
    2.7579   -0.2663    1.1220 C   0  0  0  0  0  0  0  0  0  0  0  0
    3.0387   -0.7801    2.3802 O   0  0  0  0  0  0  0  0  0  0  0  0
    3.8821   -1.8835    2.6094 C   0  0  0  0  0  0  0  0  0  0  0  0
    3.8466    0.2189    0.4074 C   0  0  0  0  0  0  0  0  0  0  0  0
    5.1121   -0.3695    0.5013 O   0  0  0  0  0  0  0  0  0  0  0  0
    5.4900   -1.4913   -0.2581 C   0  0  0  0  0  0  0  0  0  0  0  0
    3.5396    1.0545   -0.6596 C   0  0  0  0  0  0  0  0  0  0  0  0
    4.5770    1.7814   -1.2526 O   0  0  0  0  0  0  0  0  0  0  0  0
    4.5909    1.7927   -2.6743 C   0  0  0  0  0  0  0  0  0  0  0  0
    2.2410    1.0925   -1.1415 C   0  0  0  0  0  0  0  0  0  0  0  0
   -1.7263    0.9499   -0.1441 C   0  0  0  0  0  0  0  0  0  0  0  0
   -2.7077    1.5105    0.6340 C   0  0  0  0  0  0  0  0  0  0  0  0
   -3.7522    0.6843    1.0291 C   0  0  0  0  0  0  0  0  0  0  0  0
   -4.7068    1.4525    1.6867 O   0  0  0  0  0  0  0  0  0  0  0  0
   -4.3469    2.8151    1.5912 C   0  0  0  0  0  0  0  0  0  0  0  0
   -3.1914    2.7955    0.7671 O   0  0  0  0  0  0  0  0  0  0  0  0
  1  2  1  0  0  0  0
  2  3  1  0  0  0  0
  3  4  2  0  0  0  0
  4  5  1  0  0  0  0
  5  6  1  0  0  0  0
  5 22  2  0  0  0  0
  6  7  1  0  0  0  0
  6  9  2  0  0  0  0
  7  8  3  0  0  0  0
  9 10  1  0  0  0  0
 10 11  2  0  0  0  0
 11 12  1  0  0  0  0
 12 13  1  0  0  0  0
 12 15  2  0  0  0  0
 13 14  1  0  0  0  0
 15 16  1  0  0  0  0
 15 18  1  0  0  0  0
 16 17  1  0  0  0  0
 18 19  1  0  0  0  0
 18 21  2  0  0  0  0
 19 20  1  0  0  0  0
 21 10  1  0  0  0  0
 22 23  1  0  0  0  0
 23 24  2  0  0  0  0
 24 25  1  0  0  0  0
 24  3  1  0  0  0  0
 25 26  1  0  0  0  0
 26 27  1  0  0  0  0
 27 23  1  0  0  0  0
M  END
>  <zinc_id>
ZINC000096137297

>  <smiles>
COc1cc(/C=C(/C#N)c2cc(OC)c3c(c2)OCO3)cc(OC)c1OC

$$$$
