
 OpenBabel07162211283D

 18 19  0  0  0  0  0  0  0  0999 V2000
   -5.1852   -1.6197    0.3682 O   0  0  0  0  0  0  0  0  0  0  0  0
   -4.2579   -0.6477    0.0182 C   0  0  0  0  0  0  0  0  0  0  0  0
   -3.3356   -0.9520   -0.9537 C   0  0  0  0  0  0  0  0  0  0  0  0
   -2.3444   -0.0192   -1.2352 C   0  0  0  0  0  0  0  0  0  0  0  0
   -1.9515    0.9388   -0.3135 C   0  0  0  0  0  0  0  0  0  0  0  0
   -0.5433    1.2750   -0.0882 C   0  0  0  0  0  0  0  0  0  0  0  0
    0.4522    0.6376   -0.6553 C   0  0  0  0  0  0  0  0  0  0  0  0
    1.6690    0.2286    0.0520 C   0  0  0  0  0  0  0  0  0  0  0  0
    2.7719    1.0646    0.1782 C   0  0  0  0  0  0  0  0  0  0  0  0
    4.0602    0.5848   -0.0037 C   0  0  0  0  0  0  0  0  0  0  0  0
    5.1188    1.4031   -0.3951 O   0  0  0  0  0  0  0  0  0  0  0  0
    4.2968   -0.7812   -0.1009 C   0  0  0  0  0  0  0  0  0  0  0  0
    3.2156   -1.6451    0.0202 C   0  0  0  0  0  0  0  0  0  0  0  0
    3.4505   -2.9972   -0.2480 O   0  0  0  0  0  0  0  0  0  0  0  0
    1.9301   -1.1361    0.0612 C   0  0  0  0  0  0  0  0  0  0  0  0
   -2.8203    1.1338    0.7506 C   0  0  0  0  0  0  0  0  0  0  0  0
   -2.6626    2.2807    1.5097 O   0  0  0  0  0  0  0  0  0  0  0  0
   -3.8643    0.2513    1.0008 C   0  0  0  0  0  0  0  0  0  0  0  0
  1  2  1  0  0  0  0
  2  3  2  0  0  0  0
  3  4  1  0  0  0  0
  4  5  2  0  0  0  0
  5  6  1  0  0  0  0
  5 16  1  0  0  0  0
  6  7  2  0  0  0  0
  7  8  1  0  0  0  0
  8  9  2  0  0  0  0
  9 10  1  0  0  0  0
 10 11  1  0  0  0  0
 10 12  2  0  0  0  0
 12 13  1  0  0  0  0
 13 14  1  0  0  0  0
 13 15  2  0  0  0  0
 15  8  1  0  0  0  0
 16 17  1  0  0  0  0
 16 18  2  0  0  0  0
 18  2  1  0  0  0  0
M  END
>  <zinc_id>
ZINC000000899161

>  <smiles>
Oc1cc(O)cc(/C=C/c2ccc(O)cc2O)c1

$$$$
