
 OpenBabel07162211283D

 28 30  0  0  0  0  0  0  0  0999 V2000
    6.0444    1.0402   -1.4583 O   0  0  0  0  0  0  0  0  0  0  0  0
    5.0964    1.1868   -0.6673 C   0  0  0  0  0  0  0  0  0  0  0  0
    4.4426   -0.3129   -0.8654 C   0  0  2  0  0  0  0  0  0  0  0  0
    3.0702    0.0801   -0.4261 O   0  0  0  0  0  0  0  0  0  0  0  0
    2.8272   -0.5888    0.9108 C   0  0  1  0  0  0  0  0  0  0  0  0
    1.2904   -0.6492    0.6964 O   0  0  0  0  0  0  0  0  0  0  0  0
    0.6213    0.5389    0.6982 C   0  0  0  0  0  0  0  0  0  0  0  0
    1.2174    1.7761    0.7512 C   0  0  0  0  0  0  0  0  0  0  0  0
    0.5482    2.8763    0.2342 C   0  0  0  0  0  0  0  0  0  0  0  0
    1.2025    4.0489   -0.0625 O   0  0  0  0  0  0  0  0  0  0  0  0
   -0.8263    2.8391    0.0319 C   0  0  0  0  0  0  0  0  0  0  0  0
   -1.4857    1.6888    0.3629 C   0  0  0  0  0  0  0  0  0  0  0  0
   -2.9395    1.6226    0.5668 C   0  0  0  0  0  0  0  0  0  0  0  0
   -3.5201    0.4467    0.7129 C   0  0  0  0  0  0  0  0  0  0  0  0
   -4.7867    0.1521    0.0480 C   0  0  0  0  0  0  0  0  0  0  0  0
   -4.7709   -0.6187   -1.0955 C   0  0  0  0  0  0  0  0  0  0  0  0
   -5.8183   -1.4843   -1.3620 C   0  0  0  0  0  0  0  0  0  0  0  0
   -6.9258   -1.4515   -0.5216 C   0  0  0  0  0  0  0  0  0  0  0  0
   -7.7189   -2.5839   -0.3910 O   0  0  0  0  0  0  0  0  0  0  0  0
   -7.0501   -0.3752    0.3418 C   0  0  0  0  0  0  0  0  0  0  0  0
   -5.9767    0.4271    0.6960 C   0  0  0  0  0  0  0  0  0  0  0  0
   -0.7327    0.5322    0.5558 C   0  0  0  0  0  0  0  0  0  0  0  0
    2.9020   -2.2452    0.4301 C   0  0  1  0  0  0  0  0  0  0  0  0
    2.5842   -2.0299   -1.0116 O   0  0  0  0  0  0  0  0  0  0  0  0
    4.5809   -2.3276    0.1634 C   0  0  2  0  0  0  0  0  0  0  0  0
    4.8389   -2.9101    1.5219 O   0  0  0  0  0  0  0  0  0  0  0  0
    4.9307   -0.7599    0.7136 C   0  0  1  0  0  0  0  0  0  0  0  0
    6.3543   -0.9188    0.2573 O   0  0  0  0  0  0  0  0  0  0  0  0
  1  2  1  0  0  0  0
  3  2  1  1  0  0  0
  3  4  1  0  0  0  0
  4  5  1  0  0  0  0
  5  6  1  6  0  0  0
  5 23  1  0  0  0  0
  6  7  1  0  0  0  0
  7  8  2  0  0  0  0
  8  9  1  0  0  0  0
  9 10  1  0  0  0  0
  9 11  2  0  0  0  0
 11 12  1  0  0  0  0
 12 13  1  0  0  0  0
 12 22  2  0  0  0  0
 13 14  2  0  0  0  0
 14 15  1  0  0  0  0
 15 16  2  0  0  0  0
 16 17  1  0  0  0  0
 17 18  2  0  0  0  0
 18 19  1  0  0  0  0
 18 20  1  0  0  0  0
 20 21  2  0  0  0  0
 21 15  1  0  0  0  0
 22  7  1  0  0  0  0
 23 24  1  6  0  0  0
 23 25  1  0  0  0  0
 25 26  1  1  0  0  0
 25 27  1  0  0  0  0
 27 28  1  6  0  0  0
 27  3  1  0  0  0  0
M  END
>  <zinc_id>
ZINC000142857948

>  <smiles>
OC[C@@H]1O[C@@H](Oc2cc(O)cc(/C=C/c3ccc(O)cc3)c2)[C@@H](O)[C@H](O)[C@H]1O

$$$$
