
 OpenBabel07162211283D

 28 30  0  0  0  0  0  0  0  0999 V2000
   -5.0337    2.4644    2.4320 O   0  0  0  0  0  0  0  0  0  0  0  0
   -4.5629    1.1644    2.2861 C   0  0  0  0  0  0  0  0  0  0  0  0
   -4.5077    0.9075    0.6711 C   0  0  1  0  0  0  0  0  0  0  0  0
   -3.0225    0.6354    0.6822 O   0  0  0  0  0  0  0  0  0  0  0  0
   -2.7051    0.9029   -0.7859 C   0  0  1  0  0  0  0  0  0  0  0  0
   -1.7693   -0.3245   -0.8618 O   0  0  0  0  0  0  0  0  0  0  0  0
   -0.5087   -0.0761   -0.4045 C   0  0  0  0  0  0  0  0  0  0  0  0
   -0.2291    0.3557    0.8757 C   0  0  0  0  0  0  0  0  0  0  0  0
    0.6979    1.3704    1.0902 C   0  0  0  0  0  0  0  0  0  0  0  0
    0.9139    1.9647    2.3010 O   0  0  0  0  0  0  0  0  0  0  0  0
    1.5187    1.7641    0.0391 C   0  0  0  0  0  0  0  0  0  0  0  0
    1.5059    0.9973   -1.0941 C   0  0  0  0  0  0  0  0  0  0  0  0
    2.6099    1.0282   -2.0410 C   0  0  0  0  0  0  0  0  0  0  0  0
    3.3086   -0.0677   -1.9690 C   0  0  0  0  0  0  0  0  0  0  0  0
    3.7345   -0.7885   -0.8050 C   0  0  0  0  0  0  0  0  0  0  0  0
    4.5777   -1.8670   -1.0921 C   0  0  0  0  0  0  0  0  0  0  0  0
    5.7934   -2.0345   -0.4329 C   0  0  0  0  0  0  0  0  0  0  0  0
    6.1313   -1.2063    0.6317 C   0  0  0  0  0  0  0  0  0  0  0  0
    7.4306   -0.7558    0.8532 O   0  0  0  0  0  0  0  0  0  0  0  0
    5.0521   -0.5613    1.2258 C   0  0  0  0  0  0  0  0  0  0  0  0
    3.9253   -0.3481    0.4654 C   0  0  0  0  0  0  0  0  0  0  0  0
    0.4324    0.1942   -1.3942 C   0  0  0  0  0  0  0  0  0  0  0  0
   -4.1062    0.0690   -1.3631 C   0  0  1  0  0  0  0  0  0  0  0  0
   -3.4003   -0.5321   -2.5341 O   0  0  0  0  0  0  0  0  0  0  0  0
   -3.8424   -1.2900   -0.3698 C   0  0  2  0  0  0  0  0  0  0  0  0
   -4.8507   -2.0985   -1.1216 O   0  0  0  0  0  0  0  0  0  0  0  0
   -4.9970   -0.7420    0.7625 C   0  0  1  0  0  0  0  0  0  0  0  0
   -4.0967   -1.1259    1.8969 O   0  0  0  0  0  0  0  0  0  0  0  0
  1  2  1  0  0  0  0
  3  2  1  1  0  0  0
  3  4  1  0  0  0  0
  4  5  1  0  0  0  0
  5  6  1  6  0  0  0
  5 23  1  0  0  0  0
  6  7  1  0  0  0  0
  7  8  2  0  0  0  0
  8  9  1  0  0  0  0
  9 10  1  0  0  0  0
  9 11  2  0  0  0  0
 11 12  1  0  0  0  0
 12 13  1  0  0  0  0
 12 22  2  0  0  0  0
 13 14  2  0  0  0  0
 14 15  1  0  0  0  0
 15 16  2  0  0  0  0
 16 17  1  0  0  0  0
 17 18  2  0  0  0  0
 18 19  1  0  0  0  0
 18 20  1  0  0  0  0
 20 21  2  0  0  0  0
 21 15  1  0  0  0  0
 22  7  1  0  0  0  0
 23 24  1  6  0  0  0
 23 25  1  0  0  0  0
 25 26  1  6  0  0  0
 25 27  1  0  0  0  0
 27 28  1  1  0  0  0
 27  3  1  0  0  0  0
M  END
>  <zinc_id>
ZINC000169302856

>  <smiles>
OC[C@H]1O[C@@H](Oc2cc(O)cc(/C=C\c3ccc(O)cc3)c2)[C@@H](O)[C@H](O)[C@H]1O

$$$$
