
 OpenBabel07162211283D

 28 30  0  0  0  0  0  0  0  0999 V2000
    2.5295    2.0410    2.0956 O   0  0  0  0  0  0  0  0  0  0  0  0
    2.5672    2.0291    1.6840 C   0  0  0  0  0  0  0  0  0  0  0  0
    2.2393    2.2116    0.0848 C   0  0  2  0  0  0  0  0  0  0  0  0
    2.2743    0.7648   -0.3093 O   0  0  0  0  0  0  0  0  0  0  0  0
    2.9505    0.0584    0.8392 C   0  0  1  0  0  0  0  0  0  0  0  0
    2.7320   -1.3065    0.1480 O   0  0  0  0  0  0  0  0  0  0  0  0
    1.3809   -1.6221    0.3318 C   0  0  0  0  0  0  0  0  0  0  0  0
    0.9716   -2.3444    1.4472 C   0  0  0  0  0  0  0  0  0  0  0  0
   -0.3862   -2.5501    1.6626 C   0  0  0  0  0  0  0  0  0  0  0  0
   -0.8262   -3.6205    2.4472 O   0  0  0  0  0  0  0  0  0  0  0  0
   -1.3175   -2.0620    0.7524 C   0  0  0  0  0  0  0  0  0  0  0  0
   -0.9500   -1.1625   -0.2409 C   0  0  0  0  0  0  0  0  0  0  0  0
   -1.6251   -1.1106   -1.5419 C   0  0  0  0  0  0  0  0  0  0  0  0
   -2.8431   -0.7283   -1.7405 C   0  0  0  0  0  0  0  0  0  0  0  0
   -3.7214   -0.5472   -0.5727 C   0  0  0  0  0  0  0  0  0  0  0  0
   -4.9918   -1.0881   -0.7474 C   0  0  0  0  0  0  0  0  0  0  0  0
   -6.1518   -0.3891   -0.4435 C   0  0  0  0  0  0  0  0  0  0  0  0
   -6.0677    0.8749    0.1131 C   0  0  0  0  0  0  0  0  0  0  0  0
   -7.2259    1.6178    0.1832 O   0  0  0  0  0  0  0  0  0  0  0  0
   -4.8375    1.3168    0.5197 C   0  0  0  0  0  0  0  0  0  0  0  0
   -3.7021    0.6387    0.1529 C   0  0  0  0  0  0  0  0  0  0  0  0
    0.4046   -0.8894   -0.2944 C   0  0  0  0  0  0  0  0  0  0  0  0
    4.5797    0.3182    0.3258 C   0  0  1  0  0  0  0  0  0  0  0  0
    4.8039   -0.9604   -0.4096 O   0  0  0  0  0  0  0  0  0  0  0  0
    4.1973    1.1345   -1.1149 C   0  0  2  0  0  0  0  0  0  0  0  0
    5.6260    1.5325   -1.2960 O   0  0  0  0  0  0  0  0  0  0  0  0
    3.8861    2.5606   -0.2454 C   0  0  1  0  0  0  0  0  0  0  0  0
    3.5034    3.2825   -1.4990 O   0  0  0  0  0  0  0  0  0  0  0  0
  1  2  1  0  0  0  0
  3  2  1  1  0  0  0
  3  4  1  0  0  0  0
  4  5  1  0  0  0  0
  5  6  1  6  0  0  0
  5 23  1  0  0  0  0
  6  7  1  0  0  0  0
  7  8  2  0  0  0  0
  8  9  1  0  0  0  0
  9 10  1  0  0  0  0
  9 11  2  0  0  0  0
 11 12  1  0  0  0  0
 12 13  1  0  0  0  0
 12 22  2  0  0  0  0
 13 14  2  0  0  0  0
 14 15  1  0  0  0  0
 15 16  2  0  0  0  0
 16 17  1  0  0  0  0
 17 18  2  0  0  0  0
 18 19  1  0  0  0  0
 18 20  1  0  0  0  0
 20 21  2  0  0  0  0
 21 15  1  0  0  0  0
 22  7  1  0  0  0  0
 23 24  1  6  0  0  0
 23 25  1  0  0  0  0
 25 26  1  6  0  0  0
 25 27  1  0  0  0  0
 27 28  1  6  0  0  0
 27  3  1  0  0  0  0
M  END
>  <zinc_id>
ZINC000253527835

>  <smiles>
OC[C@@H]1O[C@@H](Oc2cc(O)cc(/C=C\c3ccc(O)cc3)c2)[C@@H](O)[C@H](O)[C@H]1O

$$$$
