REMARK  Name = 41774
REMARK                            x       y       z     vdW  Elec       q    Type
REMARK                         _______ _______ _______ _____ _____    ______ ____
ROOT
ATOM      1  O   LIG    1       -0.366   0.842   0.069  0.00  0.00    -0.340 OA
ENDROOT
BRANCH   1   2
ATOM      2  C   LIG    1        0.923   1.392  -0.195  0.00  0.00    +0.282 C 
ATOM      3  C   LIG    1        1.635   0.495  -1.209  0.00  0.00    +0.200 C 
ATOM      4  C   LIG    1        3.060   0.989  -1.474  0.00  0.00    +0.167 C 
ATOM      5  C   LIG    1        3.833   1.280  -0.173  0.00  0.00    +0.114 C 
ATOM      6  C   LIG    1        2.987   2.052   0.863  0.00  0.00    +0.138 C 
ATOM      7  C   LIG    1        2.909   3.555   0.588  0.00  0.00    +0.039 C 
ATOM     29  O   LIG    1        1.678   1.489   1.012  0.00  0.00    -0.344 OA
BRANCH   5   8
ATOM      8  N   LIG    1        4.266   0.011   0.428  0.00  0.00    -0.300 NA
ATOM      9  H   LIG    1        3.505  -0.666   0.397  0.00  0.00    +0.123 HD
BRANCH   8  10
ATOM     10  C   LIG    1        5.448  -0.511  -0.263  0.00  0.00    +0.109 C 
ATOM     11  C   LIG    1        6.703   0.185   0.194  0.00  0.00    -0.002 C 
ATOM     12  C   LIG    1        7.880  -0.439   0.386  0.00  0.00    -0.016 C 
ATOM     16  C   LIG    1        8.063  -1.919   0.128  0.00  0.00    +0.173 C 
ATOM     17  C   LIG    1        6.884  -2.578  -0.611  0.00  0.00    +0.177 C 
ATOM     22  C   LIG    1        5.526  -2.048  -0.133  0.00  0.00    +0.166 C 
BRANCH  17  18
ATOM     18  O   LIG    1        7.030  -2.327  -2.008  0.00  0.00    -0.386 OA
ATOM     19  H   LIG    1        7.863  -2.739  -2.296  0.00  0.00    +0.210 HD
ENDBRANCH  17  18
BRANCH  16  20
ATOM     20  O   LIG    1        8.255  -2.558   1.389  0.00  0.00    -0.385 OA
ATOM     21  H   LIG    1        8.449  -3.495   1.217  0.00  0.00    +0.210 HD
ENDBRANCH  16  20
BRANCH  22  23
ATOM     23  O   LIG    1        5.299  -2.469   1.212  0.00  0.00    -0.387 OA
ATOM     24  H   LIG    1        5.334  -3.441   1.225  0.00  0.00    +0.210 HD
ENDBRANCH  22  23
BRANCH  12  13
ATOM     13  C   LIG    1        9.095   0.311   0.852  0.00  0.00    +0.189 C 
BRANCH  13  14
ATOM     14  O   LIG    1       10.121   0.200  -0.116  0.00  0.00    -0.391 OA
ATOM     15  H   LIG    1       10.894   0.680   0.228  0.00  0.00    +0.210 HD
ENDBRANCH  13  14
ENDBRANCH  12  13
ENDBRANCH   8  10
ENDBRANCH   5   8
BRANCH   4  25
ATOM     25  O   LIG    1        2.983   2.175  -2.265  0.00  0.00    -0.387 OA
ATOM     26  H   LIG    1        3.894   2.455  -2.462  0.00  0.00    +0.210 HD
ENDBRANCH   4  25
BRANCH   3  27
ATOM     27  O   LIG    1        1.671  -0.837  -0.698  0.00  0.00    -0.384 OA
ATOM     28  H   LIG    1        2.103  -1.395  -1.367  0.00  0.00    +0.210 HD
ENDBRANCH   3  27
ENDBRANCH   1   2
BRANCH   1  30
ATOM     30  C   LIG    1       -1.315   1.865   0.386  0.00  0.00    +0.183 C 
ATOM     31  C   LIG    1       -2.357   1.276   1.353  0.00  0.00    +0.178 C 
ATOM     35  O   LIG    1       -3.246   0.372   0.685  0.00  0.00    -0.341 OA
ATOM     36  C   LIG    1       -3.932   0.923  -0.437  0.00  0.00    +0.282 C 
ATOM     37  C   LIG    1       -2.934   1.375  -1.507  0.00  0.00    +0.201 C 
ATOM     56  C   LIG    1       -1.917   2.364  -0.934  0.00  0.00    +0.179 C 
BRANCH  37  38
ATOM     38  O   LIG    1       -2.249   0.238  -2.033  0.00  0.00    -0.384 OA
ATOM     39  H   LIG    1       -1.645   0.555  -2.726  0.00  0.00    +0.210 HD
ENDBRANCH  37  38
BRANCH  56  57
ATOM     57  O   LIG    1       -2.568   3.614  -0.731  0.00  0.00    -0.386 OA
ATOM     58  H   LIG    1       -1.904   4.240  -0.396  0.00  0.00    +0.210 HD
ENDBRANCH  56  57
BRANCH  31  32
ATOM     32  C   LIG    1       -3.132   2.333   2.139  0.00  0.00    +0.190 C 
BRANCH  32  33
ATOM     33  O   LIG    1       -2.212   3.084   2.910  0.00  0.00    -0.392 OA
ATOM     34  H   LIG    1       -2.727   3.738   3.413  0.00  0.00    +0.210 HD
ENDBRANCH  32  33
ENDBRANCH  31  32
BRANCH  36  40
ATOM     40  O   LIG    1       -4.802  -0.049  -1.014  0.00  0.00    -0.340 OA
BRANCH  40  41
ATOM     41  C   LIG    1       -5.770  -0.504  -0.071  0.00  0.00    +0.183 C 
ATOM     42  C   LIG    1       -5.650  -2.021   0.126  0.00  0.00    +0.178 C 
ATOM     46  O   LIG    1       -6.704  -2.512   0.962  0.00  0.00    -0.341 OA
ATOM     47  C   LIG    1       -8.007  -2.273   0.428  0.00  0.00    +0.279 C 
ATOM     48  C   LIG    1       -8.248  -0.773   0.253  0.00  0.00    +0.201 C 
ATOM     53  C   LIG    1       -7.156  -0.122  -0.594  0.00  0.00    +0.179 C 
BRANCH  48  49
ATOM     49  O   LIG    1       -9.515  -0.543  -0.352  0.00  0.00    -0.384 OA
ATOM     50  H   LIG    1      -10.188  -0.968   0.206  0.00  0.00    +0.210 HD
ENDBRANCH  48  49
BRANCH  47  51
ATOM     51  O   LIG    1       -8.243  -3.009  -0.771  0.00  0.00    -0.365 OA
ATOM     52  H   LIG    1       -8.510  -3.907  -0.510  0.00  0.00    +0.213 HD
ENDBRANCH  47  51
BRANCH  53  54
ATOM     54  O   LIG    1       -7.289   1.300  -0.515  0.00  0.00    -0.386 OA
ATOM     55  H   LIG    1       -7.201   1.562   0.417  0.00  0.00    +0.210 HD
ENDBRANCH  53  54
BRANCH  42  43
ATOM     43  C   LIG    1       -4.333  -2.410   0.793  0.00  0.00    +0.190 C 
BRANCH  43  44
ATOM     44  O   LIG    1       -4.306  -3.817   0.948  0.00  0.00    -0.392 OA
ATOM     45  H   LIG    1       -3.462  -4.042   1.376  0.00  0.00    +0.210 HD
ENDBRANCH  43  44
ENDBRANCH  42  43
ENDBRANCH  40  41
ENDBRANCH  36  40
ENDBRANCH   1  30
TORSDOF 22
