REMARK  Name = 159278
REMARK                            x       y       z     vdW  Elec       q    Type
REMARK                         _______ _______ _______ _____ _____    ______ ____
ROOT
ATOM      1  O   LIG    1       -8.982 119.757  96.380  0.00  0.00    -0.341 OA
ATOM      2  C   LIG    1       -9.483 120.850  95.613  0.00  0.00    +0.282 C 
ATOM      3  C   LIG    1      -10.348 120.343  94.460  0.00  0.00    +0.201 C 
ATOM      4  C   LIG    1      -11.455 119.415  94.960  0.00  0.00    +0.179 C 
ATOM      5  C   LIG    1      -10.899 118.352  95.908  0.00  0.00    +0.177 C 
ATOM     23  C   LIG    1      -10.023 118.990  96.987  0.00  0.00    +0.178 C 
ENDROOT
BRANCH   5   6
ATOM      6  O   LIG    1      -11.981 117.660  96.527  0.00  0.00    -0.386 OA
ATOM      7  H   LIG    1      -11.610 117.047  97.184  0.00  0.00    +0.210 HD
ENDBRANCH   5   6
BRANCH   4   8
ATOM      8  O   LIG    1      -12.054 118.747  93.849  0.00  0.00    -0.386 OA
ATOM      9  H   LIG    1      -12.491 117.948  94.191  0.00  0.00    +0.210 HD
ENDBRANCH   4   8
BRANCH   3  10
ATOM     10  O   LIG    1      -10.934 121.471  93.810  0.00  0.00    -0.384 OA
ATOM     11  H   LIG    1      -10.310 122.214  93.873  0.00  0.00    +0.210 HD
ENDBRANCH   3  10
BRANCH   2  12
ATOM     12  O   LIG    1       -8.395 121.586  95.056  0.00  0.00    -0.348 OA
BRANCH  12  13
ATOM     13  C   LIG    1       -7.382 120.720  94.568  0.00  0.00    +0.168 C 
BRANCH  13  14
ATOM     14  C   LIG    1       -6.027 121.152  95.117  0.00  0.00    +0.063 C 
BRANCH  14  15
ATOM     15  C   LIG    1       -5.514 120.215  96.183  0.00  0.00    -0.045 A 
ATOM     16  C   LIG    1       -4.581 119.247  95.845  0.00  0.00    +0.007 A 
ATOM     17  C   LIG    1       -4.107 118.381  96.830  0.00  0.00    +0.045 A 
ATOM     18  C   LIG    1       -4.571 118.494  98.140  0.00  0.00    +0.117 A 
ATOM     19  C   LIG    1       -5.511 119.473  98.465  0.00  0.00    +0.045 A 
ATOM     22  C   LIG    1       -5.984 120.339  97.480  0.00  0.00    +0.007 A 
BRANCH  18  20
ATOM     20  O   LIG    1       -4.109 117.649  99.102  0.00  0.00    -0.507 OA
ATOM     21  H   LIG    1       -3.159 117.497  98.959  0.00  0.00    +0.292 HD
ENDBRANCH  18  20
ENDBRANCH  14  15
ENDBRANCH  13  14
ENDBRANCH  12  13
ENDBRANCH   2  12
BRANCH  23  24
ATOM     24  C   LIG    1       -9.363 117.940  97.873  0.00  0.00    +0.190 C 
BRANCH  24  25
ATOM     25  O   LIG    1      -10.107 116.739  97.783  0.00  0.00    -0.392 OA
ATOM     26  H   LIG    1      -10.164 116.499  96.842  0.00  0.00    +0.210 HD
ENDBRANCH  24  25
ENDBRANCH  23  24
TORSDOF 10
