REMARK  Name = PCA
REMARK                            x       y       z     vdW  Elec       q    Type
REMARK                         _______ _______ _______ _____ _____    ______ ____
ROOT
ATOM      1  N   GLN A  1        6.182  16.486  65.390  0.00  0.00    -0.302 N 
ATOM      2  H   GLN A  1        5.310  16.313  65.890  0.00  0.00    +0.150 HD
ATOM      3  CD  GLN A  1        6.844  15.518  64.730  0.00  0.00    +0.214 C 
ATOM      4  OE1 GLN A  1        6.457  14.332  64.641  0.00  0.00    -0.276 OA
ATOM      5  CG  GLN A  1        8.088  16.090  64.040  0.00  0.00    +0.098 C 
ATOM      6  CB  GLN A  1        8.344  17.365  64.811  0.00  0.00    +0.043 C 
ATOM      7  CA  GLN A  1        6.930  17.735  65.242  0.00  0.00    +0.182 C 
ENDROOT
BRANCH   7   8
ATOM      8  C   GLN A  1        6.317  18.635  64.180  0.00  0.00    +0.325 C 
ATOM     11  O   GLN A  1        6.939  19.610  63.745  0.00  0.00    -0.249 OA
BRANCH   8   9
ATOM      9  OXT GLN A  1        5.103  18.302  63.751  0.00  0.00    -0.479 OA
ATOM     10  HXT GLN A  1        5.038  17.503  63.243  0.00  0.00    +0.295 HD
ENDBRANCH   8   9
ENDBRANCH   7   8
TORSDOF 2
