REMARK  Name = PCA
REMARK                            x       y       z     vdW  Elec       q    Type
REMARK                         _______ _______ _______ _____ _____    ______ ____
ROOT
ATOM      1  N   GLN A  1        6.200  16.509  65.392  0.00  0.00    -0.302 N 
ATOM      2  H   GLN A  1        5.323  16.315  65.877  0.00  0.00    +0.150 HD
ATOM      3  CD  GLN A  1        6.900  15.556  64.750  0.00  0.00    +0.214 C 
ATOM      4  OE1 GLN A  1        6.546  14.360  64.659  0.00  0.00    -0.276 OA
ATOM      5  CG  GLN A  1        8.141  16.158  64.080  0.00  0.00    +0.098 C 
ATOM      6  CB  GLN A  1        8.348  17.442  64.849  0.00  0.00    +0.043 C 
ATOM      7  CA  GLN A  1        6.917  17.776  65.252  0.00  0.00    +0.182 C 
ENDROOT
BRANCH   7   8
ATOM      8  C   GLN A  1        6.300  18.656  64.174  0.00  0.00    +0.325 C 
ATOM     11  O   GLN A  1        6.907  19.641  63.741  0.00  0.00    -0.249 OA
BRANCH   8   9
ATOM      9  OXT GLN A  1        5.100  18.293  63.730  0.00  0.00    -0.479 OA
ATOM     10  HXT GLN A  1        5.050  17.460  63.279  0.00  0.00    +0.295 HD
ENDBRANCH   8   9
ENDBRANCH   7   8
TORSDOF 2
