REMARK  Name = PCA
REMARK                            x       y       z     vdW  Elec       q    Type
REMARK                         _______ _______ _______ _____ _____    ______ ____
ROOT
ATOM      1  N   GLN A  1       38.821  57.719  67.990  0.00  0.00    -0.302 N 
ATOM      2  H   GLN A  1       39.309  56.868  67.709  0.00  0.00    +0.150 HD
ATOM      3  CD  GLN A  1       38.398  57.930  69.250  0.00  0.00    +0.214 C 
ATOM      4  OE1 GLN A  1       38.575  57.133  70.197  0.00  0.00    -0.276 OA
ATOM      5  CG  GLN A  1       37.746  59.312  69.375  0.00  0.00    +0.098 C 
ATOM      6  CB  GLN A  1       37.375  59.639  67.947  0.00  0.00    +0.043 C 
ATOM      7  CA  GLN A  1       38.455  58.883  67.183  0.00  0.00    +0.182 C 
ENDROOT
BRANCH   7   8
ATOM      8  C   GLN A  1       39.640  59.813  66.967  0.00  0.00    +0.325 C 
ATOM     11  O   GLN A  1       40.560  59.863  67.790  0.00  0.00    -0.249 OA
BRANCH   8   9
ATOM      9  OXT GLN A  1       39.626  60.540  65.853  0.00  0.00    -0.479 OA
ATOM     10  HXT GLN A  1       40.365  61.120  65.718  0.00  0.00    +0.295 HD
ENDBRANCH   8   9
ENDBRANCH   7   8
TORSDOF 2
