MODEL 1
REMARK VINA RESULT:      -7.3      0.000      0.000
REMARK  Name = 9823887
REMARK                            x       y       z     vdW  Elec       q    Type
REMARK                         _______ _______ _______ _____ _____    ______ ____
ROOT
ATOM      1  O   LIG    1       -1.384  31.977  62.568  0.00  0.00    -0.341 OA
ATOM      2  C   LIG    1       -2.434  32.638  61.865  0.00  0.00    +0.282 C 
ATOM      3  C   LIG    1       -2.035  34.077  61.536  0.00  0.00    +0.201 C 
ATOM      4  C   LIG    1       -0.700  34.129  60.793  0.00  0.00    +0.179 C 
ATOM      5  C   LIG    1        0.357  33.277  61.494  0.00  0.00    +0.177 C 
ATOM     22  C   LIG    1       -0.186  31.878  61.798  0.00  0.00    +0.178 C 
ENDROOT
BRANCH   5   6
ATOM      6  O   LIG    1        1.505  33.166  60.656  0.00  0.00    -0.386 OA
ATOM      7  H   LIG    1        2.119  33.884  60.892  0.00  0.00    +0.210 HD
ENDBRANCH   5   6
BRANCH   4   8
ATOM      8  O   LIG    1       -0.228  35.477  60.756  0.00  0.00    -0.386 OA
ATOM      9  H   LIG    1       -0.828  35.980  60.179  0.00  0.00    +0.210 HD
ENDBRANCH   4   8
BRANCH   3  10
ATOM     10  O   LIG    1       -3.055  34.649  60.718  0.00  0.00    -0.384 OA
ATOM     11  H   LIG    1       -3.516  33.925  60.261  0.00  0.00    +0.210 HD
ENDBRANCH   3  10
BRANCH   2  12
ATOM     12  O   LIG    1       -3.606  32.681  62.676  0.00  0.00    -0.345 OA
BRANCH  12  13
ATOM     13  C   LIG    1       -4.427  31.544  62.459  0.00  0.00    +0.190 C 
BRANCH  13  14
ATOM     14  C   LIG    1       -5.660  31.973  61.731  0.00  0.00    +0.001 C 
ATOM     15  C   LIG    1       -6.458  31.121  61.069  0.00  0.00    +0.006 C 
BRANCH  15  16
ATOM     16  C   LIG    1       -7.689  31.495  60.351  0.00  0.00    -0.025 A 
ATOM     17  C   LIG    1       -8.639  32.275  60.992  0.00  0.00    +0.008 A 
ATOM     18  C   LIG    1       -9.804  32.629  60.311  0.00  0.00    +0.001 A 
ATOM     19  C   LIG    1      -10.005  32.197  59.001  0.00  0.00    +0.000 A 
ATOM     20  C   LIG    1       -9.041  31.412  58.369  0.00  0.00    +0.001 A 
ATOM     21  C   LIG    1       -7.876  31.058  59.049  0.00  0.00    +0.008 A 
ENDBRANCH  15  16
ENDBRANCH  13  14
ENDBRANCH  12  13
ENDBRANCH   2  12
BRANCH  22  23
ATOM     23  C   LIG    1        0.811  31.048  62.601  0.00  0.00    +0.197 C 
BRANCH  23  24
ATOM     24  O   LIG    1        1.525  31.912  63.465  0.00  0.00    -0.346 OA
BRANCH  24  25
ATOM     25  C   LIG    1        2.915  31.605  63.488  0.00  0.00    +0.281 C 
ATOM     26  C   LIG    1        3.729  32.885  63.732  0.00  0.00    +0.201 C 
ATOM     27  C   LIG    1        3.637  33.359  65.187  0.00  0.00    +0.178 C 
ATOM     28  C   LIG    1        3.915  32.194  66.138  0.00  0.00    +0.171 C 
ATOM     29  C   LIG    1        3.026  31.003  65.802  0.00  0.00    +0.197 C 
ATOM     36  O   LIG    1        3.225  30.592  64.451  0.00  0.00    -0.346 OA
BRANCH  28  30
ATOM     30  O   LIG    1        3.703  32.607  67.481  0.00  0.00    -0.387 OA
ATOM     31  H   LIG    1        4.226  32.020  68.054  0.00  0.00    +0.210 HD
ENDBRANCH  28  30
BRANCH  27  32
ATOM     32  O   LIG    1        2.331  33.873  65.440  0.00  0.00    -0.386 OA
ATOM     33  H   LIG    1        1.695  33.290  64.991  0.00  0.00    +0.210 HD
ENDBRANCH  27  32
BRANCH  26  34
ATOM     34  O   LIG    1        5.090  32.610  63.410  0.00  0.00    -0.384 OA
ATOM     35  H   LIG    1        5.130  32.279  62.498  0.00  0.00    +0.210 HD
ENDBRANCH  26  34
ENDBRANCH  24  25
ENDBRANCH  23  24
ENDBRANCH  22  23
TORSDOF 13
ENDMDL
MODEL 2
REMARK VINA RESULT:      -7.2      0.936      1.803
REMARK  Name = 9823887
REMARK                            x       y       z     vdW  Elec       q    Type
REMARK                         _______ _______ _______ _____ _____    ______ ____
ROOT
ATOM      1  O   LIG    1       -0.843  32.125  62.666  0.00  0.00    -0.341 OA
ATOM      2  C   LIG    1       -2.097  32.522  62.116  0.00  0.00    +0.282 C 
ATOM      3  C   LIG    1       -2.043  33.979  61.655  0.00  0.00    +0.201 C 
ATOM      4  C   LIG    1       -0.875  34.216  60.698  0.00  0.00    +0.179 C 
ATOM      5  C   LIG    1        0.424  33.635  61.254  0.00  0.00    +0.177 C 
ATOM     22  C   LIG    1        0.219  32.189  61.713  0.00  0.00    +0.178 C 
ENDROOT
BRANCH   5   6
ATOM      6  O   LIG    1        1.428  33.671  60.244  0.00  0.00    -0.386 OA
ATOM      7  H   LIG    1        2.088  34.338  60.501  0.00  0.00    +0.210 HD
ENDBRANCH   5   6
BRANCH   4   8
ATOM      8  O   LIG    1       -0.687  35.621  60.517  0.00  0.00    -0.386 OA
ATOM      9  H   LIG    1       -0.856  36.050  61.373  0.00  0.00    +0.210 HD
ENDBRANCH   4   8
BRANCH   3  10
ATOM     10  O   LIG    1       -3.269  34.283  60.991  0.00  0.00    -0.384 OA
ATOM     11  H   LIG    1       -3.620  35.107  61.370  0.00  0.00    +0.210 HD
ENDBRANCH   3  10
BRANCH   2  12
ATOM     12  O   LIG    1       -3.115  32.412  63.109  0.00  0.00    -0.345 OA
BRANCH  12  13
ATOM     13  C   LIG    1       -3.910  31.254  62.907  0.00  0.00    +0.190 C 
BRANCH  13  14
ATOM     14  C   LIG    1       -5.251  31.673  62.397  0.00  0.00    +0.001 C 
ATOM     15  C   LIG    1       -5.825  31.140  61.307  0.00  0.00    +0.006 C 
BRANCH  15  16
ATOM     16  C   LIG    1       -7.148  31.511  60.776  0.00  0.00    -0.025 A 
ATOM     17  C   LIG    1       -7.552  31.009  59.549  0.00  0.00    +0.008 A 
ATOM     18  C   LIG    1       -8.805  31.360  59.048  0.00  0.00    +0.001 A 
ATOM     19  C   LIG    1       -9.637  32.209  59.778  0.00  0.00    +0.000 A 
ATOM     20  C   LIG    1       -9.217  32.706  61.011  0.00  0.00    +0.001 A 
ATOM     21  C   LIG    1       -7.963  32.355  61.513  0.00  0.00    +0.008 A 
ENDBRANCH  15  16
ENDBRANCH  13  14
ENDBRANCH  12  13
ENDBRANCH   2  12
BRANCH  22  23
ATOM     23  C   LIG    1        1.470  31.624  62.379  0.00  0.00    +0.197 C 
BRANCH  23  24
ATOM     24  O   LIG    1        1.997  32.605  63.254  0.00  0.00    -0.346 OA
BRANCH  24  25
ATOM     25  C   LIG    1        2.142  32.107  64.580  0.00  0.00    +0.281 C 
ATOM     26  C   LIG    1        3.386  31.211  64.668  0.00  0.00    +0.201 C 
ATOM     27  C   LIG    1        4.685  32.024  64.651  0.00  0.00    +0.178 C 
ATOM     28  C   LIG    1        4.604  33.165  65.666  0.00  0.00    +0.171 C 
ATOM     29  C   LIG    1        3.340  33.987  65.451  0.00  0.00    +0.197 C 
ATOM     36  O   LIG    1        2.182  33.162  65.548  0.00  0.00    -0.346 OA
BRANCH  28  30
ATOM     30  O   LIG    1        5.756  33.990  65.557  0.00  0.00    -0.387 OA
ATOM     31  H   LIG    1        5.879  34.200  64.615  0.00  0.00    +0.210 HD
ENDBRANCH  28  30
BRANCH  27  32
ATOM     32  O   LIG    1        4.892  32.565  63.348  0.00  0.00    -0.386 OA
ATOM     33  H   LIG    1        4.289  32.104  62.740  0.00  0.00    +0.210 HD
ENDBRANCH  27  32
BRANCH  26  34
ATOM     34  O   LIG    1        3.309  30.469  65.883  0.00  0.00    -0.384 OA
ATOM     35  H   LIG    1        2.974  31.056  66.582  0.00  0.00    +0.210 HD
ENDBRANCH  26  34
ENDBRANCH  24  25
ENDBRANCH  23  24
ENDBRANCH  22  23
TORSDOF 13
ENDMDL
MODEL 3
REMARK VINA RESULT:      -7.1      3.909     11.843
REMARK  Name = 9823887
REMARK                            x       y       z     vdW  Elec       q    Type
REMARK                         _______ _______ _______ _____ _____    ______ ____
ROOT
ATOM      1  O   LIG    1        3.683  30.850  64.637  0.00  0.00    -0.341 OA
ATOM      2  C   LIG    1        4.263  31.272  65.869  0.00  0.00    +0.282 C 
ATOM      3  C   LIG    1        4.658  32.747  65.798  0.00  0.00    +0.201 C 
ATOM      4  C   LIG    1        3.478  33.619  65.371  0.00  0.00    +0.179 C 
ATOM      5  C   LIG    1        2.783  33.045  64.137  0.00  0.00    +0.177 C 
ATOM     22  C   LIG    1        2.481  31.556  64.326  0.00  0.00    +0.178 C 
ENDROOT
BRANCH   5   6
ATOM      6  O   LIG    1        1.565  33.749  63.910  0.00  0.00    -0.386 OA
ATOM      7  H   LIG    1        0.832  33.113  63.990  0.00  0.00    +0.210 HD
ENDBRANCH   5   6
BRANCH   4   8
ATOM      8  O   LIG    1        3.947  34.928  65.045  0.00  0.00    -0.386 OA
ATOM      9  H   LIG    1        4.917  34.885  64.994  0.00  0.00    +0.210 HD
ENDBRANCH   4   8
BRANCH   3  10
ATOM     10  O   LIG    1        5.103  33.153  67.092  0.00  0.00    -0.384 OA
ATOM     11  H   LIG    1        5.623  33.968  66.990  0.00  0.00    +0.210 HD
ENDBRANCH   3  10
BRANCH   2  12
ATOM     12  O   LIG    1        5.442  30.513  66.132  0.00  0.00    -0.345 OA
BRANCH  12  13
ATOM     13  C   LIG    1        5.377  29.879  67.399  0.00  0.00    +0.190 C 
BRANCH  13  14
ATOM     14  C   LIG    1        6.753  29.449  67.794  0.00  0.00    +0.001 C 
ATOM     15  C   LIG    1        7.383  29.910  68.886  0.00  0.00    +0.006 C 
BRANCH  15  16
ATOM     16  C   LIG    1        8.731  29.506  69.322  0.00  0.00    -0.025 A 
ATOM     17  C   LIG    1        9.777  30.410  69.223  0.00  0.00    +0.008 A 
ATOM     18  C   LIG    1       11.052  30.026  69.637  0.00  0.00    +0.001 A 
ATOM     19  C   LIG    1       11.266  28.744  70.142  0.00  0.00    +0.000 A 
ATOM     20  C   LIG    1       10.205  27.845  70.236  0.00  0.00    +0.001 A 
ATOM     21  C   LIG    1        8.928  28.229  69.822  0.00  0.00    +0.008 A 
ENDBRANCH  15  16
ENDBRANCH  13  14
ENDBRANCH  12  13
ENDBRANCH   2  12
BRANCH  22  23
ATOM     23  C   LIG    1        1.893  30.934  63.064  0.00  0.00    +0.197 C 
BRANCH  23  24
ATOM     24  O   LIG    1        0.517  31.260  62.998  0.00  0.00    -0.346 OA
BRANCH  24  25
ATOM     25  C   LIG    1        0.018  31.183  61.667  0.00  0.00    +0.281 C 
ATOM     26  C   LIG    1       -1.453  31.625  61.634  0.00  0.00    +0.201 C 
ATOM     27  C   LIG    1       -1.603  33.143  61.782  0.00  0.00    +0.178 C 
ATOM     28  C   LIG    1       -0.662  33.862  60.813  0.00  0.00    +0.171 C 
ATOM     29  C   LIG    1        0.764  33.348  60.968  0.00  0.00    +0.197 C 
ATOM     36  O   LIG    1        0.817  31.940  60.750  0.00  0.00    -0.346 OA
BRANCH  28  30
ATOM     30  O   LIG    1       -0.712  35.263  61.043  0.00  0.00    -0.387 OA
ATOM     31  H   LIG    1       -0.852  35.697  60.184  0.00  0.00    +0.210 HD
ENDBRANCH  28  30
BRANCH  27  32
ATOM     32  O   LIG    1       -1.285  33.526  63.119  0.00  0.00    -0.386 OA
ATOM     33  H   LIG    1       -2.063  33.335  63.671  0.00  0.00    +0.210 HD
ENDBRANCH  27  32
BRANCH  26  34
ATOM     34  O   LIG    1       -2.008  31.216  60.386  0.00  0.00    -0.384 OA
ATOM     35  H   LIG    1       -1.552  30.408  60.097  0.00  0.00    +0.210 HD
ENDBRANCH  26  34
ENDBRANCH  24  25
ENDBRANCH  23  24
ENDBRANCH  22  23
TORSDOF 13
ENDMDL
MODEL 4
REMARK VINA RESULT:      -6.9      1.822      2.883
REMARK  Name = 9823887
REMARK                            x       y       z     vdW  Elec       q    Type
REMARK                         _______ _______ _______ _____ _____    ______ ____
ROOT
ATOM      1  O   LIG    1       -2.093  31.542  63.692  0.00  0.00    -0.341 OA
ATOM      2  C   LIG    1       -2.878  31.114  62.581  0.00  0.00    +0.282 C 
ATOM      3  C   LIG    1       -1.998  30.926  61.345  0.00  0.00    +0.201 C 
ATOM      4  C   LIG    1       -0.823  29.994  61.634  0.00  0.00    +0.179 C 
ATOM      5  C   LIG    1       -0.103  30.392  62.921  0.00  0.00    +0.177 C 
ATOM     22  C   LIG    1       -1.102  30.584  64.066  0.00  0.00    +0.178 C 
ENDROOT
BRANCH   5   6
ATOM      6  O   LIG    1        0.830  29.374  63.276  0.00  0.00    -0.386 OA
ATOM      7  H   LIG    1        0.581  28.562  62.802  0.00  0.00    +0.210 HD
ENDBRANCH   5   6
BRANCH   4   8
ATOM      8  O   LIG    1        0.118  30.067  60.561  0.00  0.00    -0.386 OA
ATOM      9  H   LIG    1        0.989  30.256  60.950  0.00  0.00    +0.210 HD
ENDBRANCH   4   8
BRANCH   3  10
ATOM     10  O   LIG    1       -2.801  30.369  60.305  0.00  0.00    -0.384 OA
ATOM     11  H   LIG    1       -3.726  30.374  60.603  0.00  0.00    +0.210 HD
ENDBRANCH   3  10
BRANCH   2  12
ATOM     12  O   LIG    1       -3.861  32.100  62.277  0.00  0.00    -0.345 OA
BRANCH  12  13
ATOM     13  C   LIG    1       -5.159  31.670  62.655  0.00  0.00    +0.190 C 
BRANCH  13  14
ATOM     14  C   LIG    1       -6.003  31.547  61.427  0.00  0.00    +0.001 C 
ATOM     15  C   LIG    1       -7.317  31.817  61.405  0.00  0.00    +0.006 C 
BRANCH  15  16
ATOM     16  C   LIG    1       -8.183  31.724  60.217  0.00  0.00    -0.025 A 
ATOM     17  C   LIG    1       -7.804  30.909  59.162  0.00  0.00    +0.008 A 
ATOM     18  C   LIG    1       -8.625  30.821  58.038  0.00  0.00    +0.001 A 
ATOM     19  C   LIG    1       -9.814  31.549  57.983  0.00  0.00    +0.000 A 
ATOM     20  C   LIG    1      -10.182  32.365  59.052  0.00  0.00    +0.001 A 
ATOM     21  C   LIG    1       -9.361  32.453  60.177  0.00  0.00    +0.008 A 
ENDBRANCH  15  16
ENDBRANCH  13  14
ENDBRANCH  12  13
ENDBRANCH   2  12
BRANCH  22  23
ATOM     23  C   LIG    1       -0.421  31.095  65.331  0.00  0.00    +0.197 C 
BRANCH  23  24
ATOM     24  O   LIG    1        0.945  31.335  65.043  0.00  0.00    -0.346 OA
BRANCH  24  25
ATOM     25  C   LIG    1        1.286  32.707  65.209  0.00  0.00    +0.281 C 
ATOM     26  C   LIG    1        2.481  32.835  66.167  0.00  0.00    +0.201 C 
ATOM     27  C   LIG    1        3.797  32.413  65.506  0.00  0.00    +0.178 C 
ATOM     28  C   LIG    1        3.948  33.099  64.147  0.00  0.00    +0.171 C 
ATOM     29  C   LIG    1        2.708  32.872  63.291  0.00  0.00    +0.197 C 
ATOM     36  O   LIG    1        1.543  33.352  63.957  0.00  0.00    -0.346 OA
BRANCH  28  30
ATOM     30  O   LIG    1        5.104  32.608  63.484  0.00  0.00    -0.387 OA
ATOM     31  H   LIG    1        5.876  32.836  64.031  0.00  0.00    +0.210 HD
ENDBRANCH  28  30
BRANCH  27  32
ATOM     32  O   LIG    1        3.808  30.999  65.324  0.00  0.00    -0.386 OA
ATOM     33  H   LIG    1        3.780  30.826  64.367  0.00  0.00    +0.210 HD
ENDBRANCH  27  32
BRANCH  26  34
ATOM     34  O   LIG    1        2.573  34.198  66.576  0.00  0.00    -0.384 OA
ATOM     35  H   LIG    1        3.263  34.632  66.046  0.00  0.00    +0.210 HD
ENDBRANCH  26  34
ENDBRANCH  24  25
ENDBRANCH  23  24
ENDBRANCH  22  23
TORSDOF 13
ENDMDL
MODEL 5
REMARK VINA RESULT:      -6.8      4.266     11.429
REMARK  Name = 9823887
REMARK                            x       y       z     vdW  Elec       q    Type
REMARK                         _______ _______ _______ _____ _____    ______ ____
ROOT
ATOM      1  O   LIG    1        3.427  31.428  66.434  0.00  0.00    -0.341 OA
ATOM      2  C   LIG    1        3.509  32.402  67.472  0.00  0.00    +0.282 C 
ATOM      3  C   LIG    1        4.679  33.354  67.220  0.00  0.00    +0.201 C 
ATOM      4  C   LIG    1        4.598  33.979  65.828  0.00  0.00    +0.179 C 
ATOM      5  C   LIG    1        4.349  32.916  64.758  0.00  0.00    +0.177 C 
ATOM     22  C   LIG    1        3.180  32.011  65.154  0.00  0.00    +0.178 C 
ENDROOT
BRANCH   5   6
ATOM      6  O   LIG    1        4.053  33.555  63.519  0.00  0.00    -0.386 OA
ATOM      7  H   LIG    1        4.896  33.751  63.074  0.00  0.00    +0.210 HD
ENDBRANCH   5   6
BRANCH   4   8
ATOM      8  O   LIG    1        5.834  34.628  65.526  0.00  0.00    -0.386 OA
ATOM      9  H   LIG    1        5.735  35.053  64.657  0.00  0.00    +0.210 HD
ENDBRANCH   4   8
BRANCH   3  10
ATOM     10  O   LIG    1        4.635  34.386  68.206  0.00  0.00    -0.384 OA
ATOM     11  H   LIG    1        5.496  34.837  68.208  0.00  0.00    +0.210 HD
ENDBRANCH   3  10
BRANCH   2  12
ATOM     12  O   LIG    1        3.730  31.755  68.724  0.00  0.00    -0.345 OA
BRANCH  12  13
ATOM     13  C   LIG    1        3.939  30.362  68.556  0.00  0.00    +0.190 C 
BRANCH  13  14
ATOM     14  C   LIG    1        5.225  29.985  69.220  0.00  0.00    +0.001 C 
ATOM     15  C   LIG    1        6.221  29.345  68.588  0.00  0.00    +0.006 C 
BRANCH  15  16
ATOM     16  C   LIG    1        7.508  28.967  69.196  0.00  0.00    -0.025 A 
ATOM     17  C   LIG    1        8.575  29.849  69.132  0.00  0.00    +0.008 A 
ATOM     18  C   LIG    1        9.793  29.490  69.708  0.00  0.00    +0.001 A 
ATOM     19  C   LIG    1        9.930  28.254  70.340  0.00  0.00    +0.000 A 
ATOM     20  C   LIG    1        8.847  27.377  70.397  0.00  0.00    +0.001 A 
ATOM     21  C   LIG    1        7.628  27.736  69.821  0.00  0.00    +0.008 A 
ENDBRANCH  15  16
ENDBRANCH  13  14
ENDBRANCH  12  13
ENDBRANCH   2  12
BRANCH  22  23
ATOM     23  C   LIG    1        2.986  30.871  64.158  0.00  0.00    +0.197 C 
BRANCH  23  24
ATOM     24  O   LIG    1        2.111  31.309  63.136  0.00  0.00    -0.346 OA
BRANCH  24  25
ATOM     25  C   LIG    1        0.839  31.684  63.654  0.00  0.00    +0.281 C 
ATOM     26  C   LIG    1        0.122  32.611  62.661  0.00  0.00    +0.201 C 
ATOM     27  C   LIG    1       -0.412  31.849  61.443  0.00  0.00    +0.178 C 
ATOM     28  C   LIG    1       -1.193  30.614  61.896  0.00  0.00    +0.171 C 
ATOM     29  C   LIG    1       -0.360  29.773  62.854  0.00  0.00    +0.197 C 
ATOM     36  O   LIG    1        0.037  30.545  63.985  0.00  0.00    -0.346 OA
BRANCH  28  30
ATOM     30  O   LIG    1       -1.575  29.844  60.765  0.00  0.00    -0.387 OA
ATOM     31  H   LIG    1       -2.060  30.432  60.159  0.00  0.00    +0.210 HD
ENDBRANCH  28  30
BRANCH  27  32
ATOM     32  O   LIG    1        0.680  31.441  60.620  0.00  0.00    -0.386 OA
ATOM     33  H   LIG    1        1.501  31.684  61.081  0.00  0.00    +0.210 HD
ENDBRANCH  27  32
BRANCH  26  34
ATOM     34  O   LIG    1       -0.966  33.232  63.343  0.00  0.00    -0.384 OA
ATOM     35  H   LIG    1       -0.609  33.749  64.084  0.00  0.00    +0.210 HD
ENDBRANCH  26  34
ENDBRANCH  24  25
ENDBRANCH  23  24
ENDBRANCH  22  23
TORSDOF 13
ENDMDL
MODEL 6
REMARK VINA RESULT:      -6.8      4.008      6.019
REMARK  Name = 9823887
REMARK                            x       y       z     vdW  Elec       q    Type
REMARK                         _______ _______ _______ _____ _____    ______ ____
ROOT
ATOM      1  O   LIG    1        0.381  29.477  64.057  0.00  0.00    -0.341 OA
ATOM      2  C   LIG    1       -0.804  28.963  64.661  0.00  0.00    +0.282 C 
ATOM      3  C   LIG    1       -0.563  27.552  65.198  0.00  0.00    +0.201 C 
ATOM      4  C   LIG    1        0.644  27.512  66.135  0.00  0.00    +0.179 C 
ATOM      5  C   LIG    1        1.851  28.214  65.514  0.00  0.00    +0.177 C 
ATOM     22  C   LIG    1        1.462  29.596  64.984  0.00  0.00    +0.178 C 
ENDROOT
BRANCH   5   6
ATOM      6  O   LIG    1        2.872  28.356  66.497  0.00  0.00    -0.386 OA
ATOM      7  H   LIG    1        3.669  28.697  66.055  0.00  0.00    +0.210 HD
ENDBRANCH   5   6
BRANCH   4   8
ATOM      8  O   LIG    1        1.006  26.153  66.386  0.00  0.00    -0.386 OA
ATOM      9  H   LIG    1        1.558  26.142  67.187  0.00  0.00    +0.210 HD
ENDBRANCH   4   8
BRANCH   3  10
ATOM     10  O   LIG    1       -1.729  27.140  65.910  0.00  0.00    -0.384 OA
ATOM     11  H   LIG    1       -2.507  27.393  65.385  0.00  0.00    +0.210 HD
ENDBRANCH   3  10
BRANCH   2  12
ATOM     12  O   LIG    1       -1.848  28.894  63.692  0.00  0.00    -0.345 OA
BRANCH  12  13
ATOM     13  C   LIG    1       -1.368  29.200  62.392  0.00  0.00    +0.190 C 
BRANCH  13  14
ATOM     14  C   LIG    1       -1.739  30.609  62.061  0.00  0.00    +0.001 C 
ATOM     15  C   LIG    1       -0.838  31.560  61.770  0.00  0.00    +0.006 C 
BRANCH  15  16
ATOM     16  C   LIG    1       -1.158  32.956  61.425  0.00  0.00    -0.025 A 
ATOM     17  C   LIG    1       -0.130  33.830  61.110  0.00  0.00    +0.008 A 
ATOM     18  C   LIG    1       -0.433  35.151  60.782  0.00  0.00    +0.001 A 
ATOM     19  C   LIG    1       -1.760  35.582  60.775  0.00  0.00    +0.000 A 
ATOM     20  C   LIG    1       -2.784  34.691  61.094  0.00  0.00    +0.001 A 
ATOM     21  C   LIG    1       -2.481  33.369  61.422  0.00  0.00    +0.008 A 
ENDBRANCH  15  16
ENDBRANCH  13  14
ENDBRANCH  12  13
ENDBRANCH   2  12
BRANCH  22  23
ATOM     23  C   LIG    1        2.621  30.269  64.255  0.00  0.00    +0.197 C 
BRANCH  23  24
ATOM     24  O   LIG    1        3.483  30.848  65.218  0.00  0.00    -0.346 OA
BRANCH  24  25
ATOM     25  C   LIG    1        2.870  31.947  65.883  0.00  0.00    +0.281 C 
ATOM     26  C   LIG    1        3.645  32.280  67.167  0.00  0.00    +0.201 C 
ATOM     27  C   LIG    1        4.974  32.983  66.872  0.00  0.00    +0.178 C 
ATOM     28  C   LIG    1        4.752  34.143  65.901  0.00  0.00    +0.171 C 
ATOM     29  C   LIG    1        3.998  33.671  64.664  0.00  0.00    +0.197 C 
ATOM     36  O   LIG    1        2.748  33.091  65.030  0.00  0.00    -0.346 OA
BRANCH  28  30
ATOM     30  O   LIG    1        6.002  34.710  65.532  0.00  0.00    -0.387 OA
ATOM     31  H   LIG    1        6.388  34.146  64.840  0.00  0.00    +0.210 HD
ENDBRANCH  28  30
BRANCH  27  32
ATOM     32  O   LIG    1        5.888  32.052  66.295  0.00  0.00    -0.386 OA
ATOM     33  H   LIG    1        5.760  32.076  65.331  0.00  0.00    +0.210 HD
ENDBRANCH  27  32
BRANCH  26  34
ATOM     34  O   LIG    1        2.828  33.132  67.967  0.00  0.00    -0.384 OA
ATOM     35  H   LIG    1        2.141  32.590  68.390  0.00  0.00    +0.210 HD
ENDBRANCH  26  34
ENDBRANCH  24  25
ENDBRANCH  23  24
ENDBRANCH  22  23
TORSDOF 13
ENDMDL
MODEL 7
REMARK VINA RESULT:      -6.8      1.684      2.252
REMARK  Name = 9823887
REMARK                            x       y       z     vdW  Elec       q    Type
REMARK                         _______ _______ _______ _____ _____    ______ ____
ROOT
ATOM      1  O   LIG    1       -2.226  31.103  63.787  0.00  0.00    -0.341 OA
ATOM      2  C   LIG    1       -2.555  30.343  62.627  0.00  0.00    +0.282 C 
ATOM      3  C   LIG    1       -2.655  31.253  61.402  0.00  0.00    +0.201 C 
ATOM      4  C   LIG    1       -1.387  32.087  61.223  0.00  0.00    +0.179 C 
ATOM      5  C   LIG    1       -0.977  32.759  62.533  0.00  0.00    +0.177 C 
ATOM     22  C   LIG    1       -0.955  31.745  63.680  0.00  0.00    +0.178 C 
ENDROOT
BRANCH   5   6
ATOM      6  O   LIG    1        0.320  33.331  62.384  0.00  0.00    -0.386 OA
ATOM      7  H   LIG    1        0.269  34.264  62.659  0.00  0.00    +0.210 HD
ENDBRANCH   5   6
BRANCH   4   8
ATOM      8  O   LIG    1       -1.624  33.112  60.256  0.00  0.00    -0.386 OA
ATOM      9  H   LIG    1       -2.200  33.776  60.672  0.00  0.00    +0.210 HD
ENDBRANCH   4   8
BRANCH   3  10
ATOM     10  O   LIG    1       -2.849  30.432  60.250  0.00  0.00    -0.384 OA
ATOM     11  H   LIG    1       -1.982  30.091  59.974  0.00  0.00    +0.210 HD
ENDBRANCH   3  10
BRANCH   2  12
ATOM     12  O   LIG    1       -3.819  29.708  62.809  0.00  0.00    -0.345 OA
BRANCH  12  13
ATOM     13  C   LIG    1       -4.795  30.625  63.278  0.00  0.00    +0.190 C 
BRANCH  13  14
ATOM     14  C   LIG    1       -5.972  30.588  62.357  0.00  0.00    +0.001 C 
ATOM     15  C   LIG    1       -6.376  31.644  61.634  0.00  0.00    +0.006 C 
BRANCH  15  16
ATOM     16  C   LIG    1       -7.519  31.650  60.705  0.00  0.00    -0.025 A 
ATOM     17  C   LIG    1       -8.678  32.324  61.058  0.00  0.00    +0.008 A 
ATOM     18  C   LIG    1       -9.759  32.329  60.178  0.00  0.00    +0.001 A 
ATOM     19  C   LIG    1       -9.670  31.661  58.957  0.00  0.00    +0.000 A 
ATOM     20  C   LIG    1       -8.498  30.987  58.616  0.00  0.00    +0.001 A 
ATOM     21  C   LIG    1       -7.415  30.981  59.496  0.00  0.00    +0.008 A 
ENDBRANCH  15  16
ENDBRANCH  13  14
ENDBRANCH  12  13
ENDBRANCH   2  12
BRANCH  22  23
ATOM     23  C   LIG    1       -0.662  32.414  65.020  0.00  0.00    +0.197 C 
BRANCH  23  24
ATOM     24  O   LIG    1        0.690  32.838  65.026  0.00  0.00    -0.346 OA
BRANCH  24  25
ATOM     25  C   LIG    1        1.520  31.942  65.757  0.00  0.00    +0.281 C 
ATOM     26  C   LIG    1        2.469  31.207  64.798  0.00  0.00    +0.201 C 
ATOM     27  C   LIG    1        3.598  32.112  64.297  0.00  0.00    +0.178 C 
ATOM     28  C   LIG    1        4.258  32.832  65.475  0.00  0.00    +0.171 C 
ATOM     29  C   LIG    1        3.211  33.538  66.327  0.00  0.00    +0.197 C 
ATOM     36  O   LIG    1        2.239  32.608  66.801  0.00  0.00    -0.346 OA
BRANCH  28  30
ATOM     30  O   LIG    1        5.217  33.764  64.995  0.00  0.00    -0.387 OA
ATOM     31  H   LIG    1        5.956  33.776  65.627  0.00  0.00    +0.210 HD
ENDBRANCH  28  30
BRANCH  27  32
ATOM     32  O   LIG    1        3.069  33.079  63.391  0.00  0.00    -0.386 OA
ATOM     33  H   LIG    1        2.396  32.634  62.848  0.00  0.00    +0.210 HD
ENDBRANCH  27  32
BRANCH  26  34
ATOM     34  O   LIG    1        3.028  30.096  65.496  0.00  0.00    -0.384 OA
ATOM     35  H   LIG    1        3.864  30.378  65.902  0.00  0.00    +0.210 HD
ENDBRANCH  26  34
ENDBRANCH  24  25
ENDBRANCH  23  24
ENDBRANCH  22  23
TORSDOF 13
ENDMDL
MODEL 8
REMARK VINA RESULT:      -6.8      2.345      4.383
REMARK  Name = 9823887
REMARK                            x       y       z     vdW  Elec       q    Type
REMARK                         _______ _______ _______ _____ _____    ______ ____
ROOT
ATOM      1  O   LIG    1       -4.940  33.341  61.986  0.00  0.00    -0.341 OA
ATOM      2  C   LIG    1       -6.057  33.162  62.854  0.00  0.00    +0.282 C 
ATOM      3  C   LIG    1       -5.634  32.428  64.127  0.00  0.00    +0.201 C 
ATOM      4  C   LIG    1       -4.459  33.128  64.810  0.00  0.00    +0.179 C 
ATOM      5  C   LIG    1       -3.347  33.445  63.811  0.00  0.00    +0.177 C 
ATOM     22  C   LIG    1       -3.913  34.143  62.571  0.00  0.00    +0.178 C 
ENDROOT
BRANCH   5   6
ATOM      6  O   LIG    1       -2.384  34.293  64.431  0.00  0.00    -0.386 OA
ATOM      7  H   LIG    1       -2.656  34.431  65.355  0.00  0.00    +0.210 HD
ENDBRANCH   5   6
BRANCH   4   8
ATOM      8  O   LIG    1       -3.917  32.273  65.818  0.00  0.00    -0.386 OA
ATOM      9  H   LIG    1       -3.525  32.842  66.502  0.00  0.00    +0.210 HD
ENDBRANCH   4   8
BRANCH   3  10
ATOM     10  O   LIG    1       -6.749  32.396  65.017  0.00  0.00    -0.384 OA
ATOM     11  H   LIG    1       -7.435  32.985  64.661  0.00  0.00    +0.210 HD
ENDBRANCH   3  10
BRANCH   2  12
ATOM     12  O   LIG    1       -7.053  32.377  62.203  0.00  0.00    -0.345 OA
BRANCH  12  13
ATOM     13  C   LIG    1       -6.470  31.414  61.339  0.00  0.00    +0.190 C 
BRANCH  13  14
ATOM     14  C   LIG    1       -7.348  31.246  60.142  0.00  0.00    +0.001 C 
ATOM     15  C   LIG    1       -8.511  31.897  59.984  0.00  0.00    +0.006 C 
BRANCH  15  16
ATOM     16  C   LIG    1       -9.401  31.774  58.816  0.00  0.00    -0.025 A 
ATOM     17  C   LIG    1       -9.156  30.786  57.876  0.00  0.00    +0.008 A 
ATOM     18  C   LIG    1       -9.999  30.670  56.771  0.00  0.00    +0.001 A 
ATOM     19  C   LIG    1      -11.075  31.544  56.620  0.00  0.00    +0.000 A 
ATOM     20  C   LIG    1      -11.310  32.533  57.574  0.00  0.00    +0.001 A 
ATOM     21  C   LIG    1      -10.467  32.649  58.679  0.00  0.00    +0.008 A 
ENDBRANCH  15  16
ENDBRANCH  13  14
ENDBRANCH  12  13
ENDBRANCH   2  12
BRANCH  22  23
ATOM     23  C   LIG    1       -2.841  34.366  61.509  0.00  0.00    +0.197 C 
BRANCH  23  24
ATOM     24  O   LIG    1       -1.644  33.744  61.940  0.00  0.00    -0.346 OA
BRANCH  24  25
ATOM     25  C   LIG    1       -1.043  32.979  60.901  0.00  0.00    +0.281 C 
ATOM     26  C   LIG    1        0.442  33.353  60.767  0.00  0.00    +0.201 C 
ATOM     27  C   LIG    1        1.286  32.779  61.909  0.00  0.00    +0.178 C 
ATOM     28  C   LIG    1        0.982  31.291  62.093  0.00  0.00    +0.171 C 
ATOM     29  C   LIG    1       -0.518  31.064  62.238  0.00  0.00    +0.197 C 
ATOM     36  O   LIG    1       -1.215  31.571  61.103  0.00  0.00    -0.346 OA
BRANCH  28  30
ATOM     30  O   LIG    1        1.671  30.794  63.232  0.00  0.00    -0.387 OA
ATOM     31  H   LIG    1        1.069  30.863  63.993  0.00  0.00    +0.210 HD
ENDBRANCH  28  30
BRANCH  27  32
ATOM     32  O   LIG    1        0.989  33.473  63.120  0.00  0.00    -0.386 OA
ATOM     33  H   LIG    1        1.788  33.452  63.674  0.00  0.00    +0.210 HD
ENDBRANCH  27  32
BRANCH  26  34
ATOM     34  O   LIG    1        0.916  32.839  59.525  0.00  0.00    -0.384 OA
ATOM     35  H   LIG    1        0.660  33.456  58.819  0.00  0.00    +0.210 HD
ENDBRANCH  26  34
ENDBRANCH  24  25
ENDBRANCH  23  24
ENDBRANCH  22  23
TORSDOF 13
ENDMDL
MODEL 9
REMARK VINA RESULT:      -6.7      4.728      6.339
REMARK  Name = 9823887
REMARK                            x       y       z     vdW  Elec       q    Type
REMARK                         _______ _______ _______ _____ _____    ______ ____
ROOT
ATOM      1  O   LIG    1        1.216  30.215  63.551  0.00  0.00    -0.341 OA
ATOM      2  C   LIG    1        0.420  30.203  62.368  0.00  0.00    +0.282 C 
ATOM      3  C   LIG    1        0.010  31.626  61.985  0.00  0.00    +0.201 C 
ATOM      4  C   LIG    1        1.226  32.544  61.870  0.00  0.00    +0.179 C 
ATOM      5  C   LIG    1        2.139  32.408  63.087  0.00  0.00    +0.177 C 
ATOM     22  C   LIG    1        2.438  30.936  63.382  0.00  0.00    +0.178 C 
ENDROOT
BRANCH   5   6
ATOM      6  O   LIG    1        3.362  33.097  62.839  0.00  0.00    -0.386 OA
ATOM      7  H   LIG    1        3.239  34.028  63.095  0.00  0.00    +0.210 HD
ENDBRANCH   5   6
BRANCH   4   8
ATOM      8  O   LIG    1        0.792  33.902  61.792  0.00  0.00    -0.386 OA
ATOM      9  H   LIG    1       -0.169  33.892  61.640  0.00  0.00    +0.210 HD
ENDBRANCH   4   8
BRANCH   3  10
ATOM     10  O   LIG    1       -0.665  31.573  60.728  0.00  0.00    -0.384 OA
ATOM     11  H   LIG    1       -1.333  32.278  60.715  0.00  0.00    +0.210 HD
ENDBRANCH   3  10
BRANCH   2  12
ATOM     12  O   LIG    1       -0.769  29.448  62.595  0.00  0.00    -0.345 OA
BRANCH  12  13
ATOM     13  C   LIG    1       -1.226  29.593  63.930  0.00  0.00    +0.190 C 
BRANCH  13  14
ATOM     14  C   LIG    1       -1.672  28.259  64.434  0.00  0.00    +0.001 C 
ATOM     15  C   LIG    1       -0.865  27.411  65.090  0.00  0.00    +0.006 C 
BRANCH  15  16
ATOM     16  C   LIG    1       -1.264  26.094  65.616  0.00  0.00    -0.025 A 
ATOM     17  C   LIG    1       -0.390  25.024  65.504  0.00  0.00    +0.008 A 
ATOM     18  C   LIG    1       -0.768  23.778  66.003  0.00  0.00    +0.001 A 
ATOM     19  C   LIG    1       -2.015  23.617  66.607  0.00  0.00    +0.000 A 
ATOM     20  C   LIG    1       -2.884  24.702  66.713  0.00  0.00    +0.001 A 
ATOM     21  C   LIG    1       -2.506  25.949  66.214  0.00  0.00    +0.008 A 
ENDBRANCH  15  16
ENDBRANCH  13  14
ENDBRANCH  12  13
ENDBRANCH   2  12
BRANCH  22  23
ATOM     23  C   LIG    1        3.252  30.770  64.662  0.00  0.00    +0.197 C 
BRANCH  23  24
ATOM     24  O   LIG    1        3.079  31.927  65.459  0.00  0.00    -0.346 OA
BRANCH  24  25
ATOM     25  C   LIG    1        4.078  32.026  66.468  0.00  0.00    +0.281 C 
ATOM     26  C   LIG    1        5.158  33.031  66.038  0.00  0.00    +0.201 C 
ATOM     27  C   LIG    1        4.671  34.480  66.140  0.00  0.00    +0.178 C 
ATOM     28  C   LIG    1        4.031  34.726  67.507  0.00  0.00    +0.171 C 
ATOM     29  C   LIG    1        2.964  33.677  67.797  0.00  0.00    +0.197 C 
ATOM     36  O   LIG    1        3.522  32.366  67.744  0.00  0.00    -0.346 OA
BRANCH  28  30
ATOM     30  O   LIG    1        3.468  36.029  67.550  0.00  0.00    -0.387 OA
ATOM     31  H   LIG    1        3.517  36.400  66.652  0.00  0.00    +0.210 HD
ENDBRANCH  28  30
BRANCH  27  32
ATOM     32  O   LIG    1        3.709  34.734  65.117  0.00  0.00    -0.386 OA
ATOM     33  H   LIG    1        3.443  33.875  64.746  0.00  0.00    +0.210 HD
ENDBRANCH  27  32
BRANCH  26  34
ATOM     34  O   LIG    1        6.290  32.853  66.886  0.00  0.00    -0.384 OA
ATOM     35  H   LIG    1        6.944  32.309  66.416  0.00  0.00    +0.210 HD
ENDBRANCH  26  34
ENDBRANCH  24  25
ENDBRANCH  23  24
ENDBRANCH  22  23
TORSDOF 13
ENDMDL
