MODEL 1
REMARK VINA RESULT:      -7.9      0.000      0.000
REMARK  Name = 5280805
REMARK                            x       y       z     vdW  Elec       q    Type
REMARK                         _______ _______ _______ _____ _____    ______ ____
ROOT
ATOM      1  O   LIG    1       -1.926  32.473  62.416  0.00  0.00    -0.331 OA
ATOM      2  C   LIG    1       -0.659  32.995  62.020  0.00  0.00    +0.340 C 
ATOM      3  C   LIG    1       -0.823  33.978  60.861  0.00  0.00    +0.214 C 
ATOM      4  C   LIG    1       -1.834  35.074  61.200  0.00  0.00    +0.180 C 
ATOM      5  C   LIG    1       -3.121  34.481  61.773  0.00  0.00    +0.177 C 
ATOM     38  C   LIG    1       -2.810  33.488  62.895  0.00  0.00    +0.179 C 
ENDROOT
BRANCH   5   6
ATOM      6  O   LIG    1       -3.936  35.532  62.286  0.00  0.00    -0.386 OA
ATOM      7  H   LIG    1       -3.922  36.264  61.646  0.00  0.00    +0.210 HD
ENDBRANCH   5   6
BRANCH   4   8
ATOM      8  O   LIG    1       -2.169  35.795  60.013  0.00  0.00    -0.386 OA
ATOM      9  H   LIG    1       -2.652  35.186  59.429  0.00  0.00    +0.210 HD
ENDBRANCH   4   8
BRANCH   3  10
ATOM     10  O   LIG    1        0.448  34.571  60.594  0.00  0.00    -0.383 OA
ATOM     11  H   LIG    1        0.328  35.535  60.552  0.00  0.00    +0.210 HD
ENDBRANCH   3  10
BRANCH   2  12
ATOM     12  O   LIG    1        0.183  31.931  61.578  0.00  0.00    -0.453 OA
BRANCH  12  13
ATOM     13  C   LIG    1        0.894  31.380  62.621  0.00  0.00    +0.214 A 
ATOM     14  C   LIG    1        2.207  31.978  62.962  0.00  0.00    +0.238 A 
ATOM     15  C   LIG    1        2.924  31.374  64.096  0.00  0.00    +0.109 A 
ATOM     16  C   LIG    1        4.171  31.864  64.495  0.00  0.00    +0.135 A 
ATOM     17  C   LIG    1        4.828  31.274  65.576  0.00  0.00    +0.091 A 
ATOM     18  C   LIG    1        4.244  30.203  66.252  0.00  0.00    +0.124 A 
ATOM     19  C   LIG    1        2.999  29.717  65.852  0.00  0.00    +0.092 A 
ATOM     24  C   LIG    1        2.340  30.305  64.771  0.00  0.00    +0.147 A 
ATOM     25  O   LIG    1        1.120  29.785  64.425  0.00  0.00    -0.451 OA
ATOM     26  O   LIG    1        2.668  32.922  62.336  0.00  0.00    -0.283 OA
ATOM     27  C   LIG    1        0.445  30.341  63.349  0.00  0.00    +0.181 A 
BRANCH  27  28
ATOM     28  C   LIG    1       -0.850  29.690  63.085  0.00  0.00    +0.025 A 
ATOM     29  C   LIG    1       -1.133  29.186  61.816  0.00  0.00    +0.015 A 
ATOM     30  C   LIG    1       -2.359  28.570  61.566  0.00  0.00    +0.050 A 
ATOM     31  C   LIG    1       -3.304  28.459  62.585  0.00  0.00    +0.158 A 
ATOM     32  C   LIG    1       -3.023  28.963  63.855  0.00  0.00    +0.159 A 
ATOM     37  C   LIG    1       -1.796  29.578  64.105  0.00  0.00    +0.060 A 
BRANCH  32  33
ATOM     33  O   LIG    1       -3.938  28.859  64.859  0.00  0.00    -0.503 OA
ATOM     34  H   LIG    1       -3.556  28.356  65.597  0.00  0.00    +0.292 HD
ENDBRANCH  32  33
BRANCH  31  35
ATOM     35  O   LIG    1       -4.499  27.857  62.329  0.00  0.00    -0.503 OA
ATOM     36  H   LIG    1       -5.046  27.860  63.130  0.00  0.00    +0.292 HD
ENDBRANCH  31  35
ENDBRANCH  27  28
BRANCH  18  20
ATOM     20  O   LIG    1        4.889  29.632  67.306  0.00  0.00    -0.507 OA
ATOM     21  H   LIG    1        4.337  28.915  67.663  0.00  0.00    +0.292 HD
ENDBRANCH  18  20
BRANCH  16  22
ATOM     22  O   LIG    1        4.785  32.907  63.870  0.00  0.00    -0.506 OA
ATOM     23  H   LIG    1        4.296  33.134  63.060  0.00  0.00    +0.292 HD
ENDBRANCH  16  22
ENDBRANCH  12  13
ENDBRANCH   2  12
BRANCH  38  39
ATOM     39  C   LIG    1       -4.071  32.797  63.404  0.00  0.00    +0.197 C 
BRANCH  39  40
ATOM     40  O   LIG    1       -4.956  32.588  62.312  0.00  0.00    -0.346 OA
BRANCH  40  41
ATOM     41  C   LIG    1       -5.429  31.246  62.274  0.00  0.00    +0.282 C 
ATOM     42  C   LIG    1       -6.338  30.985  63.474  0.00  0.00    +0.201 C 
ATOM     43  C   LIG    1       -7.662  31.737  63.328  0.00  0.00    +0.179 C 
ATOM     44  C   LIG    1       -8.313  31.444  61.976  0.00  0.00    +0.174 C 
ATOM     45  C   LIG    1       -7.308  31.689  60.843  0.00  0.00    +0.149 C 
ATOM     46  C   LIG    1       -7.864  31.270  59.484  0.00  0.00    +0.041 C 
ATOM     53  O   LIG    1       -6.105  30.940  61.051  0.00  0.00    -0.343 OA
BRANCH  44  47
ATOM     47  O   LIG    1       -9.441  32.304  61.830  0.00  0.00    -0.387 OA
ATOM     48  H   LIG    1       -9.512  32.545  60.891  0.00  0.00    +0.210 HD
ENDBRANCH  44  47
BRANCH  43  49
ATOM     49  O   LIG    1       -8.555  31.355  64.372  0.00  0.00    -0.386 OA
ATOM     50  H   LIG    1       -8.832  32.163  64.836  0.00  0.00    +0.210 HD
ENDBRANCH  43  49
BRANCH  42  51
ATOM     51  O   LIG    1       -6.582  29.579  63.537  0.00  0.00    -0.384 OA
ATOM     52  H   LIG    1       -6.293  29.256  64.408  0.00  0.00    +0.210 HD
ENDBRANCH  42  51
ENDBRANCH  40  41
ENDBRANCH  39  40
ENDBRANCH  38  39
TORSDOF 16
ENDMDL
MODEL 2
REMARK VINA RESULT:      -7.7      1.065      2.066
REMARK  Name = 5280805
REMARK                            x       y       z     vdW  Elec       q    Type
REMARK                         _______ _______ _______ _____ _____    ______ ____
ROOT
ATOM      1  O   LIG    1       -1.452  32.521  62.834  0.00  0.00    -0.331 OA
ATOM      2  C   LIG    1       -0.301  33.079  62.205  0.00  0.00    +0.340 C 
ATOM      3  C   LIG    1       -0.702  33.878  60.965  0.00  0.00    +0.214 C 
ATOM      4  C   LIG    1       -1.761  34.929  61.299  0.00  0.00    +0.180 C 
ATOM      5  C   LIG    1       -2.905  34.322  62.113  0.00  0.00    +0.177 C 
ATOM     38  C   LIG    1       -2.362  33.520  63.298  0.00  0.00    +0.179 C 
ENDROOT
BRANCH   5   6
ATOM      6  O   LIG    1       -3.744  35.368  62.596  0.00  0.00    -0.386 OA
ATOM      7  H   LIG    1       -3.521  36.181  62.113  0.00  0.00    +0.210 HD
ENDBRANCH   5   6
BRANCH   4   8
ATOM      8  O   LIG    1       -2.311  35.452  60.088  0.00  0.00    -0.386 OA
ATOM      9  H   LIG    1       -2.465  36.402  60.225  0.00  0.00    +0.210 HD
ENDBRANCH   4   8
BRANCH   3  10
ATOM     10  O   LIG    1        0.463  34.526  60.454  0.00  0.00    -0.383 OA
ATOM     11  H   LIG    1        0.963  34.885  61.206  0.00  0.00    +0.210 HD
ENDBRANCH   3  10
BRANCH   2  12
ATOM     12  O   LIG    1        0.576  32.033  61.790  0.00  0.00    -0.453 OA
BRANCH  12  13
ATOM     13  C   LIG    1        1.220  31.455  62.862  0.00  0.00    +0.214 A 
ATOM     14  C   LIG    1        2.513  32.037  63.295  0.00  0.00    +0.238 A 
ATOM     15  C   LIG    1        3.157  31.405  64.457  0.00  0.00    +0.109 A 
ATOM     16  C   LIG    1        4.380  31.878  64.941  0.00  0.00    +0.135 A 
ATOM     17  C   LIG    1        4.967  31.261  66.046  0.00  0.00    +0.091 A 
ATOM     18  C   LIG    1        4.338  30.179  66.662  0.00  0.00    +0.124 A 
ATOM     19  C   LIG    1        3.117  29.710  66.176  0.00  0.00    +0.092 A 
ATOM     24  C   LIG    1        2.527  30.325  65.071  0.00  0.00    +0.147 A 
ATOM     25  O   LIG    1        1.328  29.820  64.640  0.00  0.00    -0.451 OA
ATOM     26  O   LIG    1        3.016  32.992  62.718  0.00  0.00    -0.283 OA
ATOM     27  C   LIG    1        0.722  30.403  63.538  0.00  0.00    +0.181 A 
BRANCH  27  28
ATOM     28  C   LIG    1       -0.558  29.767  63.182  0.00  0.00    +0.025 A 
ATOM     29  C   LIG    1       -1.476  29.438  64.179  0.00  0.00    +0.015 A 
ATOM     30  C   LIG    1       -2.688  28.836  63.842  0.00  0.00    +0.050 A 
ATOM     31  C   LIG    1       -2.982  28.561  62.506  0.00  0.00    +0.158 A 
ATOM     32  C   LIG    1       -2.065  28.889  61.508  0.00  0.00    +0.159 A 
ATOM     37  C   LIG    1       -0.853  29.492  61.846  0.00  0.00    +0.060 A 
BRANCH  32  33
ATOM     33  O   LIG    1       -2.341  28.628  60.200  0.00  0.00    -0.503 OA
ATOM     34  H   LIG    1       -1.643  28.068  59.825  0.00  0.00    +0.292 HD
ENDBRANCH  32  33
BRANCH  31  35
ATOM     35  O   LIG    1       -4.168  27.971  62.189  0.00  0.00    -0.503 OA
ATOM     36  H   LIG    1       -4.218  27.095  62.601  0.00  0.00    +0.292 HD
ENDBRANCH  31  35
ENDBRANCH  27  28
BRANCH  18  20
ATOM     20  O   LIG    1        4.914  29.580  67.740  0.00  0.00    -0.507 OA
ATOM     21  H   LIG    1        5.789  29.977  67.891  0.00  0.00    +0.292 HD
ENDBRANCH  18  20
BRANCH  16  22
ATOM     22  O   LIG    1        5.036  32.930  64.377  0.00  0.00    -0.506 OA
ATOM     23  H   LIG    1        5.203  32.743  63.438  0.00  0.00    +0.292 HD
ENDBRANCH  16  22
ENDBRANCH  12  13
ENDBRANCH   2  12
BRANCH  38  39
ATOM     39  C   LIG    1       -3.478  32.810  64.058  0.00  0.00    +0.197 C 
BRANCH  39  40
ATOM     40  O   LIG    1       -4.239  32.035  63.143  0.00  0.00    -0.346 OA
BRANCH  40  41
ATOM     41  C   LIG    1       -5.621  32.373  63.198  0.00  0.00    +0.282 C 
ATOM     42  C   LIG    1       -6.252  32.193  61.818  0.00  0.00    +0.201 C 
ATOM     43  C   LIG    1       -6.356  30.710  61.455  0.00  0.00    +0.179 C 
ATOM     44  C   LIG    1       -7.049  29.922  62.567  0.00  0.00    +0.174 C 
ATOM     45  C   LIG    1       -6.375  30.207  63.915  0.00  0.00    +0.149 C 
ATOM     46  C   LIG    1       -7.123  29.557  65.077  0.00  0.00    +0.041 C 
ATOM     53  O   LIG    1       -6.330  31.613  64.181  0.00  0.00    -0.343 OA
BRANCH  44  47
ATOM     47  O   LIG    1       -6.956  28.535  62.251  0.00  0.00    -0.387 OA
ATOM     48  H   LIG    1       -7.433  28.386  61.417  0.00  0.00    +0.210 HD
ENDBRANCH  44  47
BRANCH  43  49
ATOM     49  O   LIG    1       -7.090  30.557  60.243  0.00  0.00    -0.386 OA
ATOM     50  H   LIG    1       -6.907  29.668  59.896  0.00  0.00    +0.210 HD
ENDBRANCH  43  49
BRANCH  42  51
ATOM     51  O   LIG    1       -7.555  32.777  61.856  0.00  0.00    -0.384 OA
ATOM     52  H   LIG    1       -7.652  33.256  62.697  0.00  0.00    +0.210 HD
ENDBRANCH  42  51
ENDBRANCH  40  41
ENDBRANCH  39  40
ENDBRANCH  38  39
TORSDOF 16
ENDMDL
MODEL 3
REMARK VINA RESULT:      -7.6      2.253      8.485
REMARK  Name = 5280805
REMARK                            x       y       z     vdW  Elec       q    Type
REMARK                         _______ _______ _______ _____ _____    ______ ____
ROOT
ATOM      1  O   LIG    1       -0.175  32.166  63.237  0.00  0.00    -0.331 OA
ATOM      2  C   LIG    1       -1.424  32.353  62.575  0.00  0.00    +0.340 C 
ATOM      3  C   LIG    1       -1.429  33.670  61.800  0.00  0.00    +0.214 C 
ATOM      4  C   LIG    1       -0.236  33.760  60.848  0.00  0.00    +0.180 C 
ATOM      5  C   LIG    1        1.068  33.397  61.559  0.00  0.00    +0.177 C 
ATOM     38  C   LIG    1        0.921  32.080  62.325  0.00  0.00    +0.179 C 
ENDROOT
BRANCH   5   6
ATOM      6  O   LIG    1        2.110  33.268  60.595  0.00  0.00    -0.386 OA
ATOM      7  H   LIG    1        2.931  33.046  61.067  0.00  0.00    +0.210 HD
ENDBRANCH   5   6
BRANCH   4   8
ATOM      8  O   LIG    1       -0.115  35.098  60.361  0.00  0.00    -0.386 OA
ATOM      9  H   LIG    1       -1.014  35.459  60.279  0.00  0.00    +0.210 HD
ENDBRANCH   4   8
BRANCH   3  10
ATOM     10  O   LIG    1       -2.640  33.744  61.050  0.00  0.00    -0.383 OA
ATOM     11  H   LIG    1       -3.299  34.217  61.586  0.00  0.00    +0.210 HD
ENDBRANCH   3  10
BRANCH   2  12
ATOM     12  O   LIG    1       -2.476  32.405  63.538  0.00  0.00    -0.453 OA
BRANCH  12  13
ATOM     13  C   LIG    1       -3.299  31.304  63.449  0.00  0.00    +0.214 A 
ATOM     14  C   LIG    1       -4.578  31.447  62.713  0.00  0.00    +0.238 A 
ATOM     15  C   LIG    1       -5.418  30.243  62.623  0.00  0.00    +0.109 A 
ATOM     16  C   LIG    1       -6.644  30.275  61.953  0.00  0.00    +0.135 A 
ATOM     17  C   LIG    1       -7.420  29.117  61.880  0.00  0.00    +0.091 A 
ATOM     18  C   LIG    1       -6.974  27.936  62.474  0.00  0.00    +0.124 A 
ATOM     19  C   LIG    1       -5.749  27.907  63.142  0.00  0.00    +0.092 A 
ATOM     24  C   LIG    1       -4.972  29.064  63.216  0.00  0.00    +0.147 A 
ATOM     25  O   LIG    1       -3.778  28.974  63.885  0.00  0.00    -0.451 OA
ATOM     26  O   LIG    1       -4.916  32.509  62.207  0.00  0.00    -0.283 OA
ATOM     27  C   LIG    1       -2.988  30.108  63.984  0.00  0.00    +0.181 A 
BRANCH  27  28
ATOM     28  C   LIG    1       -1.737  29.875  64.725  0.00  0.00    +0.025 A 
ATOM     29  C   LIG    1       -0.781  28.993  64.221  0.00  0.00    +0.015 A 
ATOM     30  C   LIG    1        0.404  28.772  64.923  0.00  0.00    +0.050 A 
ATOM     31  C   LIG    1        0.633  29.431  66.130  0.00  0.00    +0.158 A 
ATOM     32  C   LIG    1       -0.322  30.313  66.635  0.00  0.00    +0.159 A 
ATOM     37  C   LIG    1       -1.506  30.535  65.933  0.00  0.00    +0.060 A 
BRANCH  32  33
ATOM     33  O   LIG    1       -0.108  30.965  67.812  0.00  0.00    -0.503 OA
ATOM     34  H   LIG    1        0.834  30.922  68.043  0.00  0.00    +0.292 HD
ENDBRANCH  32  33
BRANCH  31  35
ATOM     35  O   LIG    1        1.793  29.206  66.807  0.00  0.00    -0.503 OA
ATOM     36  H   LIG    1        2.546  29.273  66.199  0.00  0.00    +0.292 HD
ENDBRANCH  31  35
ENDBRANCH  27  28
BRANCH  18  20
ATOM     20  O   LIG    1       -7.733  26.809  62.401  0.00  0.00    -0.507 OA
ATOM     21  H   LIG    1       -7.234  26.067  62.782  0.00  0.00    +0.292 HD
ENDBRANCH  18  20
BRANCH  16  22
ATOM     22  O   LIG    1       -7.126  31.401  61.356  0.00  0.00    -0.506 OA
ATOM     23  H   LIG    1       -8.092  31.436  61.462  0.00  0.00    +0.292 HD
ENDBRANCH  16  22
ENDBRANCH  12  13
ENDBRANCH   2  12
BRANCH  38  39
ATOM     39  C   LIG    1        2.171  31.755  63.137  0.00  0.00    +0.197 C 
BRANCH  39  40
ATOM     40  O   LIG    1        2.184  32.562  64.306  0.00  0.00    -0.346 OA
BRANCH  40  41
ATOM     41  C   LIG    1        3.098  32.059  65.275  0.00  0.00    +0.282 C 
ATOM     42  C   LIG    1        4.469  32.705  65.077  0.00  0.00    +0.201 C 
ATOM     43  C   LIG    1        4.439  34.180  65.480  0.00  0.00    +0.179 C 
ATOM     44  C   LIG    1        3.866  34.352  66.887  0.00  0.00    +0.174 C 
ATOM     45  C   LIG    1        2.517  33.630  66.999  0.00  0.00    +0.149 C 
ATOM     46  C   LIG    1        1.975  33.648  68.426  0.00  0.00    +0.041 C 
ATOM     53  O   LIG    1        2.636  32.255  66.615  0.00  0.00    -0.343 OA
BRANCH  44  47
ATOM     47  O   LIG    1        3.701  35.747  67.131  0.00  0.00    -0.387 OA
ATOM     48  H   LIG    1        4.575  36.119  67.335  0.00  0.00    +0.210 HD
ENDBRANCH  44  47
BRANCH  43  49
ATOM     49  O   LIG    1        5.758  34.721  65.440  0.00  0.00    -0.386 OA
ATOM     50  H   LIG    1        6.062  34.693  64.517  0.00  0.00    +0.210 HD
ENDBRANCH  43  49
BRANCH  42  51
ATOM     51  O   LIG    1        5.405  31.996  65.889  0.00  0.00    -0.384 OA
ATOM     52  H   LIG    1        6.151  32.589  66.086  0.00  0.00    +0.210 HD
ENDBRANCH  42  51
ENDBRANCH  40  41
ENDBRANCH  39  40
ENDBRANCH  38  39
TORSDOF 16
ENDMDL
MODEL 4
REMARK VINA RESULT:      -7.6      3.194      7.591
REMARK  Name = 5280805
REMARK                            x       y       z     vdW  Elec       q    Type
REMARK                         _______ _______ _______ _____ _____    ______ ____
ROOT
ATOM      1  O   LIG    1        1.654  30.245  65.891  0.00  0.00    -0.331 OA
ATOM      2  C   LIG    1        1.660  29.656  67.189  0.00  0.00    +0.340 C 
ATOM      3  C   LIG    1        0.231  29.453  67.694  0.00  0.00    +0.214 C 
ATOM      4  C   LIG    1       -0.606  28.662  66.689  0.00  0.00    +0.180 C 
ATOM      5  C   LIG    1       -0.460  29.229  65.277  0.00  0.00    +0.177 C 
ATOM     38  C   LIG    1        1.016  29.416  64.917  0.00  0.00    +0.179 C 
ENDROOT
BRANCH   5   6
ATOM      6  O   LIG    1       -1.063  28.335  64.346  0.00  0.00    -0.386 OA
ATOM      7  H   LIG    1       -0.497  28.297  63.556  0.00  0.00    +0.210 HD
ENDBRANCH   5   6
BRANCH   4   8
ATOM      8  O   LIG    1       -1.985  28.738  67.055  0.00  0.00    -0.386 OA
ATOM      9  H   LIG    1       -2.295  29.634  66.839  0.00  0.00    +0.210 HD
ENDBRANCH   4   8
BRANCH   3  10
ATOM     10  O   LIG    1        0.289  28.741  68.929  0.00  0.00    -0.383 OA
ATOM     11  H   LIG    1        0.260  27.790  68.730  0.00  0.00    +0.210 HD
ENDBRANCH   3  10
BRANCH   2  12
ATOM     12  O   LIG    1        2.332  30.518  68.106  0.00  0.00    -0.453 OA
BRANCH  12  13
ATOM     13  C   LIG    1        3.617  30.090  68.356  0.00  0.00    +0.214 A 
ATOM     14  C   LIG    1        3.797  28.826  69.110  0.00  0.00    +0.238 A 
ATOM     15  C   LIG    1        5.185  28.393  69.337  0.00  0.00    +0.109 A 
ATOM     16  C   LIG    1        5.459  27.216  70.039  0.00  0.00    +0.135 A 
ATOM     17  C   LIG    1        6.785  26.828  70.238  0.00  0.00    +0.091 A 
ATOM     18  C   LIG    1        7.828  27.609  69.739  0.00  0.00    +0.124 A 
ATOM     19  C   LIG    1        7.549  28.783  69.038  0.00  0.00    +0.092 A 
ATOM     24  C   LIG    1        6.225  29.174  68.838  0.00  0.00    +0.147 A 
ATOM     25  O   LIG    1        6.014  30.336  68.142  0.00  0.00    -0.451 OA
ATOM     26  O   LIG    1        2.843  28.178  69.520  0.00  0.00    -0.283 OA
ATOM     27  C   LIG    1        4.709  30.756  67.936  0.00  0.00    +0.181 A 
BRANCH  27  28
ATOM     28  C   LIG    1        4.624  32.015  67.175  0.00  0.00    +0.025 A 
ATOM     29  C   LIG    1        4.510  33.231  67.849  0.00  0.00    +0.015 A 
ATOM     30  C   LIG    1        4.429  34.423  67.129  0.00  0.00    +0.050 A 
ATOM     31  C   LIG    1        4.461  34.399  65.735  0.00  0.00    +0.158 A 
ATOM     32  C   LIG    1        4.575  33.184  65.061  0.00  0.00    +0.159 A 
ATOM     37  C   LIG    1        4.656  31.992  65.781  0.00  0.00    +0.060 A 
BRANCH  32  33
ATOM     33  O   LIG    1        4.610  33.148  63.699  0.00  0.00    -0.503 OA
ATOM     34  H   LIG    1        5.514  33.318  63.391  0.00  0.00    +0.292 HD
ENDBRANCH  32  33
BRANCH  31  35
ATOM     35  O   LIG    1        4.380  35.570  65.043  0.00  0.00    -0.503 OA
ATOM     36  H   LIG    1        3.837  35.444  64.249  0.00  0.00    +0.292 HD
ENDBRANCH  31  35
ENDBRANCH  27  28
BRANCH  18  20
ATOM     20  O   LIG    1        9.119  27.226  69.935  0.00  0.00    -0.507 OA
ATOM     21  H   LIG    1        9.218  26.907  70.848  0.00  0.00    +0.292 HD
ENDBRANCH  18  20
BRANCH  16  22
ATOM     22  O   LIG    1        4.480  26.417  70.546  0.00  0.00    -0.506 OA
ATOM     23  H   LIG    1        3.714  26.423  69.947  0.00  0.00    +0.292 HD
ENDBRANCH  16  22
ENDBRANCH  12  13
ENDBRANCH   2  12
BRANCH  38  39
ATOM     39  C   LIG    1        1.185  30.090  63.559  0.00  0.00    +0.197 C 
BRANCH  39  40
ATOM     40  O   LIG    1        0.017  30.843  63.268  0.00  0.00    -0.346 OA
BRANCH  40  41
ATOM     41  C   LIG    1       -0.406  30.650  61.922  0.00  0.00    +0.282 C 
ATOM     42  C   LIG    1       -1.852  31.116  61.763  0.00  0.00    +0.201 C 
ATOM     43  C   LIG    1       -1.947  32.640  61.855  0.00  0.00    +0.179 C 
ATOM     44  C   LIG    1       -0.965  33.308  60.891  0.00  0.00    +0.174 C 
ATOM     45  C   LIG    1        0.445  32.740  61.095  0.00  0.00    +0.149 C 
ATOM     46  C   LIG    1        1.431  33.269  60.057  0.00  0.00    +0.041 C 
ATOM     53  O   LIG    1        0.445  31.312  60.982  0.00  0.00    -0.343 OA
BRANCH  44  47
ATOM     47  O   LIG    1       -0.975  34.711  61.149  0.00  0.00    -0.387 OA
ATOM     48  H   LIG    1       -0.345  35.130  60.538  0.00  0.00    +0.210 HD
ENDBRANCH  44  47
BRANCH  43  49
ATOM     49  O   LIG    1       -3.272  33.065  61.544  0.00  0.00    -0.386 OA
ATOM     50  H   LIG    1       -3.610  33.562  62.308  0.00  0.00    +0.210 HD
ENDBRANCH  43  49
BRANCH  42  51
ATOM     51  O   LIG    1       -2.313  30.676  60.485  0.00  0.00    -0.384 OA
ATOM     52  H   LIG    1       -1.932  31.256  59.804  0.00  0.00    +0.210 HD
ENDBRANCH  42  51
ENDBRANCH  40  41
ENDBRANCH  39  40
ENDBRANCH  38  39
TORSDOF 16
ENDMDL
MODEL 5
REMARK VINA RESULT:      -7.6      2.110      9.629
REMARK  Name = 5280805
REMARK                            x       y       z     vdW  Elec       q    Type
REMARK                         _______ _______ _______ _____ _____    ______ ____
ROOT
ATOM      1  O   LIG    1        0.557  29.514  64.176  0.00  0.00    -0.331 OA
ATOM      2  C   LIG    1       -0.853  29.363  64.033  0.00  0.00    +0.340 C 
ATOM      3  C   LIG    1       -1.261  27.905  64.243  0.00  0.00    +0.214 C 
ATOM      4  C   LIG    1       -0.741  27.369  65.577  0.00  0.00    +0.180 C 
ATOM      5  C   LIG    1        0.742  27.691  65.763  0.00  0.00    +0.177 C 
ATOM     38  C   LIG    1        1.015  29.171  65.485  0.00  0.00    +0.179 C 
ENDROOT
BRANCH   5   6
ATOM      6  O   LIG    1        1.126  27.384  67.100  0.00  0.00    -0.386 OA
ATOM      7  H   LIG    1        0.362  27.547  67.678  0.00  0.00    +0.210 HD
ENDBRANCH   5   6
BRANCH   4   8
ATOM      8  O   LIG    1       -0.892  25.948  65.610  0.00  0.00    -0.386 OA
ATOM      9  H   LIG    1       -0.729  25.618  64.710  0.00  0.00    +0.210 HD
ENDBRANCH   4   8
BRANCH   3  10
ATOM     10  O   LIG    1       -2.687  27.832  64.226  0.00  0.00    -0.383 OA
ATOM     11  H   LIG    1       -2.940  26.895  64.171  0.00  0.00    +0.210 HD
ENDBRANCH   3  10
BRANCH   2  12
ATOM     12  O   LIG    1       -1.248  29.745  62.715  0.00  0.00    -0.453 OA
BRANCH  12  13
ATOM     13  C   LIG    1       -2.050  30.865  62.731  0.00  0.00    +0.214 A 
ATOM     14  C   LIG    1       -3.518  30.672  62.647  0.00  0.00    +0.238 A 
ATOM     15  C   LIG    1       -4.339  31.892  62.688  0.00  0.00    +0.109 A 
ATOM     16  C   LIG    1       -5.733  31.817  62.613  0.00  0.00    +0.135 A 
ATOM     17  C   LIG    1       -6.488  32.990  62.657  0.00  0.00    +0.091 A 
ATOM     18  C   LIG    1       -5.855  34.228  62.774  0.00  0.00    +0.124 A 
ATOM     19  C   LIG    1       -4.464  34.299  62.849  0.00  0.00    +0.092 A 
ATOM     24  C   LIG    1       -3.706  33.127  62.805  0.00  0.00    +0.147 A 
ATOM     25  O   LIG    1       -2.344  33.260  62.884  0.00  0.00    -0.451 OA
ATOM     26  O   LIG    1       -4.018  29.560  62.550  0.00  0.00    -0.283 OA
ATOM     27  C   LIG    1       -1.564  32.116  62.833  0.00  0.00    +0.181 A 
BRANCH  27  28
ATOM     28  C   LIG    1       -0.121  32.399  62.928  0.00  0.00    +0.025 A 
ATOM     29  C   LIG    1        0.700  32.225  61.813  0.00  0.00    +0.015 A 
ATOM     30  C   LIG    1        2.065  32.494  61.903  0.00  0.00    +0.050 A 
ATOM     31  C   LIG    1        2.611  32.935  63.108  0.00  0.00    +0.158 A 
ATOM     32  C   LIG    1        1.792  33.109  64.223  0.00  0.00    +0.159 A 
ATOM     37  C   LIG    1        0.426  32.841  64.132  0.00  0.00    +0.060 A 
BRANCH  32  33
ATOM     33  O   LIG    1        2.314  33.542  65.405  0.00  0.00    -0.503 OA
ATOM     34  H   LIG    1        1.853  33.110  66.142  0.00  0.00    +0.292 HD
ENDBRANCH  32  33
BRANCH  31  35
ATOM     35  O   LIG    1        3.947  33.192  63.184  0.00  0.00    -0.503 OA
ATOM     36  H   LIG    1        4.182  33.437  64.093  0.00  0.00    +0.292 HD
ENDBRANCH  31  35
ENDBRANCH  27  28
BRANCH  18  20
ATOM     20  O   LIG    1       -6.596  35.369  62.816  0.00  0.00    -0.507 OA
ATOM     21  H   LIG    1       -7.304  35.261  63.475  0.00  0.00    +0.292 HD
ENDBRANCH  18  20
BRANCH  16  22
ATOM     22  O   LIG    1       -6.400  30.635  62.499  0.00  0.00    -0.506 OA
ATOM     23  H   LIG    1       -7.073  30.709  61.800  0.00  0.00    +0.292 HD
ENDBRANCH  16  22
ENDBRANCH  12  13
ENDBRANCH   2  12
BRANCH  38  39
ATOM     39  C   LIG    1        2.504  29.493  65.550  0.00  0.00    +0.197 C 
BRANCH  39  40
ATOM     40  O   LIG    1        2.683  30.712  66.259  0.00  0.00    -0.346 OA
BRANCH  40  41
ATOM     41  C   LIG    1        3.424  30.513  67.458  0.00  0.00    +0.282 C 
ATOM     42  C   LIG    1        4.797  29.932  67.127  0.00  0.00    +0.201 C 
ATOM     43  C   LIG    1        5.680  30.977  66.440  0.00  0.00    +0.179 C 
ATOM     44  C   LIG    1        5.728  32.271  67.253  0.00  0.00    +0.174 C 
ATOM     45  C   LIG    1        4.305  32.746  67.575  0.00  0.00    +0.149 C 
ATOM     46  C   LIG    1        4.303  33.954  68.509  0.00  0.00    +0.041 C 
ATOM     53  O   LIG    1        3.554  31.714  68.225  0.00  0.00    -0.343 OA
BRANCH  44  47
ATOM     47  O   LIG    1        6.413  33.254  66.480  0.00  0.00    -0.387 OA
ATOM     48  H   LIG    1        5.835  34.033  66.409  0.00  0.00    +0.210 HD
ENDBRANCH  44  47
BRANCH  43  49
ATOM     49  O   LIG    1        7.003  30.469  66.286  0.00  0.00    -0.386 OA
ATOM     50  H   LIG    1        7.496  31.092  65.727  0.00  0.00    +0.210 HD
ENDBRANCH  43  49
BRANCH  42  51
ATOM     51  O   LIG    1        5.401  29.515  68.353  0.00  0.00    -0.384 OA
ATOM     52  H   LIG    1        4.912  29.922  69.089  0.00  0.00    +0.210 HD
ENDBRANCH  42  51
ENDBRANCH  40  41
ENDBRANCH  39  40
ENDBRANCH  38  39
TORSDOF 16
ENDMDL
MODEL 6
REMARK VINA RESULT:      -7.6      3.554      7.508
REMARK  Name = 5280805
REMARK                            x       y       z     vdW  Elec       q    Type
REMARK                         _______ _______ _______ _____ _____    ______ ____
ROOT
ATOM      1  O   LIG    1       -7.961  30.460  62.593  0.00  0.00    -0.331 OA
ATOM      2  C   LIG    1       -6.582  30.097  62.579  0.00  0.00    +0.340 C 
ATOM      3  C   LIG    1       -6.416  28.608  62.881  0.00  0.00    +0.214 C 
ATOM      4  C   LIG    1       -7.261  27.752  61.937  0.00  0.00    +0.180 C 
ATOM      5  C   LIG    1       -8.697  28.271  61.856  0.00  0.00    +0.177 C 
ATOM     38  C   LIG    1       -8.716  29.778  61.589  0.00  0.00    +0.179 C 
ENDROOT
BRANCH   5   6
ATOM      6  O   LIG    1       -9.382  27.598  60.804  0.00  0.00    -0.386 OA
ATOM      7  H   LIG    1       -8.722  27.301  60.156  0.00  0.00    +0.210 HD
ENDBRANCH   5   6
BRANCH   4   8
ATOM      8  O   LIG    1       -7.304  26.409  62.423  0.00  0.00    -0.386 OA
ATOM      9  H   LIG    1       -7.759  26.425  63.283  0.00  0.00    +0.210 HD
ENDBRANCH   4   8
BRANCH   3  10
ATOM     10  O   LIG    1       -5.038  28.269  62.721  0.00  0.00    -0.383 OA
ATOM     11  H   LIG    1       -4.884  27.418  63.165  0.00  0.00    +0.210 HD
ENDBRANCH   3  10
BRANCH   2  12
ATOM     12  O   LIG    1       -5.881  30.830  63.584  0.00  0.00    -0.453 OA
BRANCH  12  13
ATOM     13  C   LIG    1       -5.090  31.814  63.035  0.00  0.00    +0.214 A 
ATOM     14  C   LIG    1       -3.693  31.467  62.676  0.00  0.00    +0.238 A 
ATOM     15  C   LIG    1       -2.888  32.540  62.073  0.00  0.00    +0.109 A 
ATOM     16  C   LIG    1       -1.560  32.313  61.702  0.00  0.00    +0.135 A 
ATOM     17  C   LIG    1       -0.819  33.349  61.129  0.00  0.00    +0.091 A 
ATOM     18  C   LIG    1       -1.402  34.600  60.929  0.00  0.00    +0.124 A 
ATOM     19  C   LIG    1       -2.729  34.822  61.300  0.00  0.00    +0.092 A 
ATOM     24  C   LIG    1       -3.471  33.789  61.873  0.00  0.00    +0.147 A 
ATOM     25  O   LIG    1       -4.769  34.067  62.216  0.00  0.00    -0.451 OA
ATOM     26  O   LIG    1       -3.237  30.348  62.871  0.00  0.00    -0.283 OA
ATOM     27  C   LIG    1       -5.529  33.064  62.797  0.00  0.00    +0.181 A 
BRANCH  27  28
ATOM     28  C   LIG    1       -6.902  33.494  63.115  0.00  0.00    +0.025 A 
ATOM     29  C   LIG    1       -7.337  33.518  64.440  0.00  0.00    +0.015 A 
ATOM     30  C   LIG    1       -8.636  33.925  64.741  0.00  0.00    +0.050 A 
ATOM     31  C   LIG    1       -9.502  34.308  63.717  0.00  0.00    +0.158 A 
ATOM     32  C   LIG    1       -9.068  34.285  62.392  0.00  0.00    +0.159 A 
ATOM     37  C   LIG    1       -7.768  33.878  62.091  0.00  0.00    +0.060 A 
BRANCH  32  33
ATOM     33  O   LIG    1       -9.904  34.658  61.383  0.00  0.00    -0.503 OA
ATOM     34  H   LIG    1      -10.813  34.723  61.719  0.00  0.00    +0.292 HD
ENDBRANCH  32  33
BRANCH  31  35
ATOM     35  O   LIG    1      -10.769  34.702  64.023  0.00  0.00    -0.503 OA
ATOM     36  H   LIG    1      -10.740  35.508  64.563  0.00  0.00    +0.292 HD
ENDBRANCH  31  35
ENDBRANCH  27  28
BRANCH  18  20
ATOM     20  O   LIG    1       -0.676  35.607  60.369  0.00  0.00    -0.507 OA
ATOM     21  H   LIG    1       -1.175  36.438  60.450  0.00  0.00    +0.292 HD
ENDBRANCH  18  20
BRANCH  16  22
ATOM     22  O   LIG    1       -0.943  31.111  61.875  0.00  0.00    -0.506 OA
ATOM     23  H   LIG    1       -0.020  31.174  61.574  0.00  0.00    +0.292 HD
ENDBRANCH  16  22
ENDBRANCH  12  13
ENDBRANCH   2  12
BRANCH  38  39
ATOM     39  C   LIG    1      -10.133  30.341  61.620  0.00  0.00    +0.197 C 
BRANCH  39  40
ATOM     40  O   LIG    1      -10.598  30.495  60.286  0.00  0.00    -0.346 OA
BRANCH  40  41
ATOM     41  C   LIG    1       -9.849  31.481  59.585  0.00  0.00    +0.282 C 
ATOM     42  C   LIG    1       -9.194  30.854  58.355  0.00  0.00    +0.201 C 
ATOM     43  C   LIG    1      -10.241  30.512  57.294  0.00  0.00    +0.179 C 
ATOM     44  C   LIG    1      -11.122  31.723  56.983  0.00  0.00    +0.174 C 
ATOM     45  C   LIG    1      -11.692  32.308  58.282  0.00  0.00    +0.149 C 
ATOM     46  C   LIG    1      -12.459  33.605  58.037  0.00  0.00    +0.041 C 
ATOM     53  O   LIG    1      -10.647  32.610  59.213  0.00  0.00    -0.343 OA
BRANCH  44  47
ATOM     47  O   LIG    1      -12.180  31.294  56.129  0.00  0.00    -0.387 OA
ATOM     48  H   LIG    1      -11.795  31.080  55.262  0.00  0.00    +0.210 HD
ENDBRANCH  44  47
BRANCH  43  49
ATOM     49  O   LIG    1       -9.598  30.080  56.097  0.00  0.00    -0.386 OA
ATOM     50  H   LIG    1       -9.367  29.142  56.207  0.00  0.00    +0.210 HD
ENDBRANCH  43  49
BRANCH  42  51
ATOM     51  O   LIG    1       -8.260  31.800  57.830  0.00  0.00    -0.384 OA
ATOM     52  H   LIG    1       -8.251  32.578  58.413  0.00  0.00    +0.210 HD
ENDBRANCH  42  51
ENDBRANCH  40  41
ENDBRANCH  39  40
ENDBRANCH  38  39
TORSDOF 16
ENDMDL
MODEL 7
REMARK VINA RESULT:      -7.5      1.874      8.425
REMARK  Name = 5280805
REMARK                            x       y       z     vdW  Elec       q    Type
REMARK                         _______ _______ _______ _____ _____    ______ ____
ROOT
ATOM      1  O   LIG    1       -1.524  31.900  62.568  0.00  0.00    -0.331 OA
ATOM      2  C   LIG    1       -2.778  32.458  62.181  0.00  0.00    +0.340 C 
ATOM      3  C   LIG    1       -2.638  33.957  61.913  0.00  0.00    +0.214 C 
ATOM      4  C   LIG    1       -1.528  34.238  60.900  0.00  0.00    +0.180 C 
ATOM      5  C   LIG    1       -0.244  33.493  61.265  0.00  0.00    +0.177 C 
ATOM     38  C   LIG    1       -0.534  32.016  61.545  0.00  0.00    +0.179 C 
ENDROOT
BRANCH   5   6
ATOM      6  O   LIG    1        0.682  33.595  60.186  0.00  0.00    -0.386 OA
ATOM      7  H   LIG    1        1.575  33.676  60.563  0.00  0.00    +0.210 HD
ENDBRANCH   5   6
BRANCH   4   8
ATOM      8  O   LIG    1       -1.238  35.638  60.890  0.00  0.00    -0.386 OA
ATOM      9  H   LIG    1       -1.651  36.026  61.680  0.00  0.00    +0.210 HD
ENDBRANCH   4   8
BRANCH   3  10
ATOM     10  O   LIG    1       -3.880  34.438  61.400  0.00  0.00    -0.383 OA
ATOM     11  H   LIG    1       -4.451  34.662  62.154  0.00  0.00    +0.210 HD
ENDBRANCH   3  10
BRANCH   2  12
ATOM     12  O   LIG    1       -3.727  32.287  63.234  0.00  0.00    -0.453 OA
BRANCH  12  13
ATOM     13  C   LIG    1       -4.644  31.304  62.934  0.00  0.00    +0.214 A 
ATOM     14  C   LIG    1       -5.852  31.689  62.164  0.00  0.00    +0.238 A 
ATOM     15  C   LIG    1       -6.796  30.606  61.846  0.00  0.00    +0.109 A 
ATOM     16  C   LIG    1       -7.965  30.867  61.127  0.00  0.00    +0.135 A 
ATOM     17  C   LIG    1       -8.842  29.821  60.837  0.00  0.00    +0.091 A 
ATOM     18  C   LIG    1       -8.553  28.524  61.263  0.00  0.00    +0.124 A 
ATOM     19  C   LIG    1       -7.384  28.268  61.981  0.00  0.00    +0.092 A 
ATOM     24  C   LIG    1       -6.506  29.312  62.272  0.00  0.00    +0.147 A 
ATOM     25  O   LIG    1       -5.374  28.999  62.979  0.00  0.00    -0.451 OA
ATOM     26  O   LIG    1       -6.051  32.844  61.812  0.00  0.00    -0.283 OA
ATOM     27  C   LIG    1       -4.486  30.016  63.293  0.00  0.00    +0.181 A 
BRANCH  27  28
ATOM     28  C   LIG    1       -3.316  29.545  64.052  0.00  0.00    +0.025 A 
ATOM     29  C   LIG    1       -2.365  28.730  63.436  0.00  0.00    +0.015 A 
ATOM     30  C   LIG    1       -1.257  28.284  64.155  0.00  0.00    +0.050 A 
ATOM     31  C   LIG    1       -1.098  28.651  65.491  0.00  0.00    +0.158 A 
ATOM     32  C   LIG    1       -2.047  29.465  66.108  0.00  0.00    +0.159 A 
ATOM     37  C   LIG    1       -3.156  29.912  65.389  0.00  0.00    +0.060 A 
BRANCH  32  33
ATOM     33  O   LIG    1       -1.902  29.831  67.413  0.00  0.00    -0.503 OA
ATOM     34  H   LIG    1       -1.166  29.339  67.810  0.00  0.00    +0.292 HD
ENDBRANCH  32  33
BRANCH  31  35
ATOM     35  O   LIG    1       -0.012  28.207  66.184  0.00  0.00    -0.503 OA
ATOM     36  H   LIG    1        0.725  28.051  65.572  0.00  0.00    +0.292 HD
ENDBRANCH  31  35
ENDBRANCH  27  28
BRANCH  18  20
ATOM     20  O   LIG    1       -9.411  27.507  60.978  0.00  0.00    -0.507 OA
ATOM     21  H   LIG    1       -8.920  26.668  60.987  0.00  0.00    +0.292 HD
ENDBRANCH  18  20
BRANCH  16  22
ATOM     22  O   LIG    1       -8.295  32.113  60.687  0.00  0.00    -0.506 OA
ATOM     23  H   LIG    1       -7.521  32.525  60.267  0.00  0.00    +0.292 HD
ENDBRANCH  16  22
ENDBRANCH  12  13
ENDBRANCH   2  12
BRANCH  38  39
ATOM     39  C   LIG    1        0.711  31.276  62.023  0.00  0.00    +0.197 C 
BRANCH  39  40
ATOM     40  O   LIG    1        1.641  32.220  62.535  0.00  0.00    -0.346 OA
BRANCH  40  41
ATOM     41  C   LIG    1        2.668  31.583  63.289  0.00  0.00    +0.282 C 
ATOM     42  C   LIG    1        3.832  32.551  63.496  0.00  0.00    +0.201 C 
ATOM     43  C   LIG    1        3.445  33.670  64.466  0.00  0.00    +0.179 C 
ATOM     44  C   LIG    1        2.872  33.096  65.762  0.00  0.00    +0.174 C 
ATOM     45  C   LIG    1        1.746  32.103  65.447  0.00  0.00    +0.149 C 
ATOM     46  C   LIG    1        1.240  31.394  66.701  0.00  0.00    +0.041 C 
ATOM     53  O   LIG    1        2.194  31.086  64.544  0.00  0.00    -0.343 OA
BRANCH  44  47
ATOM     47  O   LIG    1        2.371  34.179  66.543  0.00  0.00    -0.387 OA
ATOM     48  H   LIG    1        2.183  33.841  67.435  0.00  0.00    +0.210 HD
ENDBRANCH  44  47
BRANCH  43  49
ATOM     49  O   LIG    1        4.588  34.466  64.770  0.00  0.00    -0.386 OA
ATOM     50  H   LIG    1        4.909  34.201  65.649  0.00  0.00    +0.210 HD
ENDBRANCH  43  49
BRANCH  42  51
ATOM     51  O   LIG    1        4.929  31.805  64.026  0.00  0.00    -0.384 OA
ATOM     52  H   LIG    1        5.023  30.988  63.507  0.00  0.00    +0.210 HD
ENDBRANCH  42  51
ENDBRANCH  40  41
ENDBRANCH  39  40
ENDBRANCH  38  39
TORSDOF 16
ENDMDL
MODEL 8
REMARK VINA RESULT:      -7.5      1.714      8.914
REMARK  Name = 5280805
REMARK                            x       y       z     vdW  Elec       q    Type
REMARK                         _______ _______ _______ _____ _____    ______ ____
ROOT
ATOM      1  O   LIG    1       -1.550  32.305  63.193  0.00  0.00    -0.331 OA
ATOM      2  C   LIG    1       -2.689  32.877  62.554  0.00  0.00    +0.340 C 
ATOM      3  C   LIG    1       -2.312  34.180  61.850  0.00  0.00    +0.214 C 
ATOM      4  C   LIG    1       -1.137  33.975  60.893  0.00  0.00    +0.180 C 
ATOM      5  C   LIG    1        0.003  33.216  61.571  0.00  0.00    +0.177 C 
ATOM     38  C   LIG    1       -0.520  31.957  62.266  0.00  0.00    +0.179 C 
ENDROOT
BRANCH   5   6
ATOM      6  O   LIG    1        0.970  32.845  60.591  0.00  0.00    -0.386 OA
ATOM      7  H   LIG    1        0.620  32.086  60.096  0.00  0.00    +0.210 HD
ENDBRANCH   5   6
BRANCH   4   8
ATOM      8  O   LIG    1       -0.636  35.246  60.476  0.00  0.00    -0.386 OA
ATOM      9  H   LIG    1       -1.352  35.700  60.001  0.00  0.00    +0.210 HD
ENDBRANCH   4   8
BRANCH   3  10
ATOM     10  O   LIG    1       -3.447  34.638  61.116  0.00  0.00    -0.383 OA
ATOM     11  H   LIG    1       -3.259  35.537  60.800  0.00  0.00    +0.210 HD
ENDBRANCH   3  10
BRANCH   2  12
ATOM     12  O   LIG    1       -3.688  33.176  63.528  0.00  0.00    -0.453 OA
BRANCH  12  13
ATOM     13  C   LIG    1       -4.928  32.717  63.141  0.00  0.00    +0.214 A 
ATOM     14  C   LIG    1       -5.972  33.719  62.817  0.00  0.00    +0.238 A 
ATOM     15  C   LIG    1       -7.275  33.187  62.388  0.00  0.00    +0.109 A 
ATOM     16  C   LIG    1       -8.326  34.050  62.062  0.00  0.00    +0.135 A 
ATOM     17  C   LIG    1       -9.551  33.518  61.655  0.00  0.00    +0.091 A 
ATOM     18  C   LIG    1       -9.724  32.136  61.575  0.00  0.00    +0.124 A 
ATOM     19  C   LIG    1       -8.672  31.279  61.900  0.00  0.00    +0.092 A 
ATOM     24  C   LIG    1       -7.447  31.807  62.307  0.00  0.00    +0.147 A 
ATOM     25  O   LIG    1       -6.452  30.915  62.613  0.00  0.00    -0.451 OA
ATOM     26  O   LIG    1       -5.761  34.921  62.901  0.00  0.00    -0.283 OA
ATOM     27  C   LIG    1       -5.226  31.409  63.031  0.00  0.00    +0.181 A 
BRANCH  27  28
ATOM     28  C   LIG    1       -4.248  30.347  63.326  0.00  0.00    +0.025 A 
ATOM     29  C   LIG    1       -3.968  30.004  64.649  0.00  0.00    +0.015 A 
ATOM     30  C   LIG    1       -3.043  28.999  64.928  0.00  0.00    +0.050 A 
ATOM     31  C   LIG    1       -2.396  28.336  63.885  0.00  0.00    +0.158 A 
ATOM     32  C   LIG    1       -2.675  28.679  62.562  0.00  0.00    +0.159 A 
ATOM     37  C   LIG    1       -3.601  29.684  62.283  0.00  0.00    +0.060 A 
BRANCH  32  33
ATOM     33  O   LIG    1       -2.051  28.038  61.534  0.00  0.00    -0.503 OA
ATOM     34  H   LIG    1       -2.476  28.277  60.695  0.00  0.00    +0.292 HD
ENDBRANCH  32  33
BRANCH  31  35
ATOM     35  O   LIG    1       -1.493  27.357  64.170  0.00  0.00    -0.503 OA
ATOM     36  H   LIG    1       -0.593  27.698  64.053  0.00  0.00    +0.292 HD
ENDBRANCH  31  35
ENDBRANCH  27  28
BRANCH  18  20
ATOM     20  O   LIG    1      -10.920  31.623  61.177  0.00  0.00    -0.507 OA
ATOM     21  H   LIG    1      -10.774  31.032  60.418  0.00  0.00    +0.292 HD
ENDBRANCH  18  20
BRANCH  16  22
ATOM     22  O   LIG    1       -8.210  35.406  62.122  0.00  0.00    -0.506 OA
ATOM     23  H   LIG    1       -8.267  35.776  61.225  0.00  0.00    +0.292 HD
ENDBRANCH  16  22
ENDBRANCH  12  13
ENDBRANCH   2  12
BRANCH  38  39
ATOM     39  C   LIG    1        0.580  31.244  63.048  0.00  0.00    +0.197 C 
BRANCH  39  40
ATOM     40  O   LIG    1        1.450  32.216  63.610  0.00  0.00    -0.346 OA
BRANCH  40  41
ATOM     41  C   LIG    1        2.813  31.817  63.506  0.00  0.00    +0.282 C 
ATOM     42  C   LIG    1        3.716  33.049  63.548  0.00  0.00    +0.201 C 
ATOM     43  C   LIG    1        3.727  33.669  64.946  0.00  0.00    +0.179 C 
ATOM     44  C   LIG    1        4.054  32.619  66.008  0.00  0.00    +0.174 C 
ATOM     45  C   LIG    1        3.129  31.406  65.853  0.00  0.00    +0.149 C 
ATOM     46  C   LIG    1        3.513  30.269  66.797  0.00  0.00    +0.041 C 
ATOM     53  O   LIG    1        3.187  30.881  64.521  0.00  0.00    -0.343 OA
BRANCH  44  47
ATOM     47  O   LIG    1        3.875  33.216  67.291  0.00  0.00    -0.387 OA
ATOM     48  H   LIG    1        3.098  33.798  67.243  0.00  0.00    +0.210 HD
ENDBRANCH  44  47
BRANCH  43  49
ATOM     49  O   LIG    1        4.695  34.715  65.005  0.00  0.00    -0.386 OA
ATOM     50  H   LIG    1        4.744  35.021  65.926  0.00  0.00    +0.210 HD
ENDBRANCH  43  49
BRANCH  42  51
ATOM     51  O   LIG    1        5.035  32.634  63.188  0.00  0.00    -0.384 OA
ATOM     52  H   LIG    1        5.293  33.103  62.376  0.00  0.00    +0.210 HD
ENDBRANCH  42  51
ENDBRANCH  40  41
ENDBRANCH  39  40
ENDBRANCH  38  39
TORSDOF 16
ENDMDL
MODEL 9
REMARK VINA RESULT:      -7.4      1.954      8.630
REMARK  Name = 5280805
REMARK                            x       y       z     vdW  Elec       q    Type
REMARK                         _______ _______ _______ _____ _____    ______ ____
ROOT
ATOM      1  O   LIG    1        0.313  29.792  63.616  0.00  0.00    -0.331 OA
ATOM      2  C   LIG    1       -1.102  29.639  63.538  0.00  0.00    +0.340 C 
ATOM      3  C   LIG    1       -1.505  28.199  63.856  0.00  0.00    +0.214 C 
ATOM      4  C   LIG    1       -0.933  27.746  65.200  0.00  0.00    +0.180 C 
ATOM      5  C   LIG    1        0.556  28.073  65.306  0.00  0.00    +0.177 C 
ATOM     38  C   LIG    1        0.821  29.531  64.925  0.00  0.00    +0.179 C 
ENDROOT
BRANCH   5   6
ATOM      6  O   LIG    1        0.993  27.849  66.644  0.00  0.00    -0.386 OA
ATOM      7  H   LIG    1        0.207  27.809  67.215  0.00  0.00    +0.210 HD
ENDBRANCH   5   6
BRANCH   4   8
ATOM      8  O   LIG    1       -1.085  26.331  65.328  0.00  0.00    -0.386 OA
ATOM      9  H   LIG    1       -2.036  26.146  65.409  0.00  0.00    +0.210 HD
ENDBRANCH   4   8
BRANCH   3  10
ATOM     10  O   LIG    1       -2.930  28.131  63.900  0.00  0.00    -0.383 OA
ATOM     11  H   LIG    1       -3.257  28.072  62.986  0.00  0.00    +0.210 HD
ENDBRANCH   3  10
BRANCH   2  12
ATOM     12  O   LIG    1       -1.548  29.939  62.216  0.00  0.00    -0.453 OA
BRANCH  12  13
ATOM     13  C   LIG    1       -1.721  31.293  62.034  0.00  0.00    +0.214 A 
ATOM     14  C   LIG    1       -0.599  32.068  61.451  0.00  0.00    +0.238 A 
ATOM     15  C   LIG    1       -0.832  33.506  61.253  0.00  0.00    +0.109 A 
ATOM     16  C   LIG    1        0.165  34.324  60.712  0.00  0.00    +0.135 A 
ATOM     17  C   LIG    1       -0.085  35.685  60.533  0.00  0.00    +0.091 A 
ATOM     18  C   LIG    1       -1.320  36.225  60.891  0.00  0.00    +0.124 A 
ATOM     19  C   LIG    1       -2.313  35.406  61.430  0.00  0.00    +0.092 A 
ATOM     24  C   LIG    1       -2.066  34.045  61.611  0.00  0.00    +0.147 A 
ATOM     25  O   LIG    1       -3.080  33.291  62.144  0.00  0.00    -0.451 OA
ATOM     26  O   LIG    1        0.463  31.538  61.151  0.00  0.00    -0.283 OA
ATOM     27  C   LIG    1       -2.862  31.937  62.345  0.00  0.00    +0.181 A 
BRANCH  27  28
ATOM     28  C   LIG    1       -4.028  31.246  62.921  0.00  0.00    +0.025 A 
ATOM     29  C   LIG    1       -4.276  31.317  64.292  0.00  0.00    +0.015 A 
ATOM     30  C   LIG    1       -5.380  30.664  64.837  0.00  0.00    +0.050 A 
ATOM     31  C   LIG    1       -6.238  29.936  64.011  0.00  0.00    +0.158 A 
ATOM     32  C   LIG    1       -5.992  29.864  62.641  0.00  0.00    +0.159 A 
ATOM     37  C   LIG    1       -4.887  30.519  62.095  0.00  0.00    +0.060 A 
BRANCH  32  33
ATOM     33  O   LIG    1       -6.823  29.158  61.824  0.00  0.00    -0.503 OA
ATOM     34  H   LIG    1       -6.577  29.312  60.897  0.00  0.00    +0.292 HD
ENDBRANCH  32  33
BRANCH  31  35
ATOM     35  O   LIG    1       -7.312  29.300  64.555  0.00  0.00    -0.503 OA
ATOM     36  H   LIG    1       -7.072  28.389  64.785  0.00  0.00    +0.292 HD
ENDBRANCH  31  35
ENDBRANCH  27  28
BRANCH  18  20
ATOM     20  O   LIG    1       -1.559  37.554  60.714  0.00  0.00    -0.507 OA
ATOM     21  H   LIG    1       -2.513  37.718  60.807  0.00  0.00    +0.292 HD
ENDBRANCH  18  20
BRANCH  16  22
ATOM     22  O   LIG    1        1.387  33.848  60.346  0.00  0.00    -0.506 OA
ATOM     23  H   LIG    1        1.931  34.579  60.006  0.00  0.00    +0.292 HD
ENDBRANCH  16  22
ENDBRANCH  12  13
ENDBRANCH   2  12
BRANCH  38  39
ATOM     39  C   LIG    1        2.313  29.850  64.911  0.00  0.00    +0.197 C 
BRANCH  39  40
ATOM     40  O   LIG    1        2.538  31.042  65.651  0.00  0.00    -0.346 OA
BRANCH  40  41
ATOM     41  C   LIG    1        3.112  30.764  66.924  0.00  0.00    +0.282 C 
ATOM     42  C   LIG    1        4.470  30.087  66.742  0.00  0.00    +0.201 C 
ATOM     43  C   LIG    1        5.502  31.075  66.195  0.00  0.00    +0.179 C 
ATOM     44  C   LIG    1        5.547  32.346  67.044  0.00  0.00    +0.174 C 
ATOM     45  C   LIG    1        4.134  32.920  67.208  0.00  0.00    +0.149 C 
ATOM     46  C   LIG    1        4.107  34.107  68.169  0.00  0.00    +0.041 C 
ATOM     53  O   LIG    1        3.236  31.937  67.734  0.00  0.00    -0.343 OA
BRANCH  44  47
ATOM     47  O   LIG    1        6.390  33.289  66.386  0.00  0.00    -0.387 OA
ATOM     48  H   LIG    1        6.234  33.211  65.429  0.00  0.00    +0.210 HD
ENDBRANCH  44  47
BRANCH  43  49
ATOM     49  O   LIG    1        6.793  30.471  66.184  0.00  0.00    -0.386 OA
ATOM     50  H   LIG    1        7.417  31.098  66.590  0.00  0.00    +0.210 HD
ENDBRANCH  43  49
BRANCH  42  51
ATOM     51  O   LIG    1        4.888  29.602  68.018  0.00  0.00    -0.384 OA
ATOM     52  H   LIG    1        4.147  29.119  68.421  0.00  0.00    +0.210 HD
ENDBRANCH  42  51
ENDBRANCH  40  41
ENDBRANCH  39  40
ENDBRANCH  38  39
TORSDOF 16
ENDMDL
