MODEL 1
REMARK VINA RESULT:      -7.5      0.000      0.000
REMARK  Name = 439533
REMARK                            x       y       z     vdW  Elec       q    Type
REMARK                         _______ _______ _______ _____ _____    ______ ____
ROOT
ATOM      1  O   LIG    1       10.471  15.655  41.396  0.00  0.00    -0.480 OA
ATOM      2  C   LIG    1        9.229  15.531  41.957  0.00  0.00    +0.139 A 
ATOM      3  C   LIG    1        8.190  15.168  41.098  0.00  0.00    +0.092 A 
ATOM      4  C   LIG    1        6.892  15.026  41.592  0.00  0.00    +0.124 A 
ATOM      5  C   LIG    1        6.633  15.237  42.946  0.00  0.00    +0.091 A 
ATOM      6  C   LIG    1        7.669  15.581  43.813  0.00  0.00    +0.134 A 
ATOM     11  C   LIG    1        8.968  15.719  43.316  0.00  0.00    +0.103 A 
ATOM     12  C   LIG    1       10.087  16.035  44.226  0.00  0.00    +0.202 C 
ATOM     13  C   LIG    1       11.467  15.981  43.608  0.00  0.00    +0.230 C 
ATOM     16  O   LIG    1        9.889  16.292  45.408  0.00  0.00    -0.289 OA
ATOM     17  C   LIG    1       11.377  16.465  42.160  0.00  0.00    +0.240 C 
ENDROOT
BRANCH  17  18
ATOM     18  C   LIG    1       12.724  16.413  41.465  0.00  0.00    -0.001 A 
ATOM     19  C   LIG    1       12.952  17.192  40.332  0.00  0.00    +0.011 A 
ATOM     20  C   LIG    1       14.190  17.144  39.692  0.00  0.00    +0.049 A 
ATOM     21  C   LIG    1       15.199  16.318  40.188  0.00  0.00    +0.158 A 
ATOM     22  C   LIG    1       14.969  15.539  41.322  0.00  0.00    +0.159 A 
ATOM     27  C   LIG    1       13.730  15.587  41.961  0.00  0.00    +0.056 A 
BRANCH  22  23
ATOM     23  O   LIG    1       15.946  14.728  41.814  0.00  0.00    -0.503 OA
ATOM     24  H   LIG    1       16.803  15.040  41.475  0.00  0.00    +0.292 HD
ENDBRANCH  22  23
BRANCH  21  25
ATOM     25  O   LIG    1       16.404  16.278  39.554  0.00  0.00    -0.503 OA
ATOM     26  H   LIG    1       16.325  16.729  38.695  0.00  0.00    +0.292 HD
ENDBRANCH  21  25
ENDBRANCH  17  18
BRANCH   6   7
ATOM      7  O   LIG    1        7.362  15.756  45.128  0.00  0.00    -0.506 OA
ATOM      8  H   LIG    1        6.403  15.817  45.252  0.00  0.00    +0.292 HD
ENDBRANCH   6   7
BRANCH   4   9
ATOM      9  O   LIG    1        5.879  14.683  40.751  0.00  0.00    -0.507 OA
ATOM     10  H   LIG    1        5.319  14.016  41.186  0.00  0.00    +0.292 HD
ENDBRANCH   4   9
BRANCH  13  14
ATOM     14  O   LIG    1       12.319  16.831  44.355  0.00  0.00    -0.380 OA
ATOM     15  H   LIG    1       12.915  16.265  44.877  0.00  0.00    +0.211 HD
ENDBRANCH  13  14
TORSDOF 6
ENDMDL
MODEL 2
REMARK VINA RESULT:      -7.4      1.934      6.761
REMARK  Name = 439533
REMARK                            x       y       z     vdW  Elec       q    Type
REMARK                         _______ _______ _______ _____ _____    ______ ____
ROOT
ATOM      1  O   LIG    1        9.821  15.420  41.923  0.00  0.00    -0.480 OA
ATOM      2  C   LIG    1       11.059  15.697  41.409  0.00  0.00    +0.139 A 
ATOM      3  C   LIG    1       11.502  14.875  40.370  0.00  0.00    +0.092 A 
ATOM      4  C   LIG    1       12.755  15.091  39.795  0.00  0.00    +0.124 A 
ATOM      5  C   LIG    1       13.563  16.133  40.250  0.00  0.00    +0.091 A 
ATOM      6  C   LIG    1       13.120  16.969  41.273  0.00  0.00    +0.134 A 
ATOM     11  C   LIG    1       11.863  16.753  41.845  0.00  0.00    +0.103 A 
ATOM     12  C   LIG    1       11.355  17.657  42.896  0.00  0.00    +0.202 C 
ATOM     13  C   LIG    1        9.916  17.435  43.309  0.00  0.00    +0.230 C 
ATOM     16  O   LIG    1       12.061  18.541  43.367  0.00  0.00    -0.289 OA
ATOM     17  C   LIG    1        9.611  15.938  43.246  0.00  0.00    +0.240 C 
ENDROOT
BRANCH  17  18
ATOM     18  C   LIG    1        8.172  15.640  43.622  0.00  0.00    -0.001 A 
ATOM     19  C   LIG    1        7.235  15.370  42.627  0.00  0.00    +0.011 A 
ATOM     20  C   LIG    1        5.912  15.096  42.974  0.00  0.00    +0.049 A 
ATOM     21  C   LIG    1        5.530  15.091  44.316  0.00  0.00    +0.158 A 
ATOM     22  C   LIG    1        6.469  15.363  45.310  0.00  0.00    +0.159 A 
ATOM     27  C   LIG    1        7.793  15.637  44.963  0.00  0.00    +0.056 A 
BRANCH  22  23
ATOM     23  O   LIG    1        6.107  15.362  46.623  0.00  0.00    -0.503 OA
ATOM     24  H   LIG    1        5.834  16.264  46.865  0.00  0.00    +0.292 HD
ENDBRANCH  22  23
BRANCH  21  25
ATOM     25  O   LIG    1        4.235  14.824  44.641  0.00  0.00    -0.503 OA
ATOM     26  H   LIG    1        4.122  13.861  44.729  0.00  0.00    +0.292 HD
ENDBRANCH  21  25
ENDBRANCH  17  18
BRANCH   6   7
ATOM      7  O   LIG    1       13.942  17.982  41.664  0.00  0.00    -0.506 OA
ATOM      8  H   LIG    1       14.323  18.431  40.895  0.00  0.00    +0.292 HD
ENDBRANCH   6   7
BRANCH   4   9
ATOM      9  O   LIG    1       13.189  14.282  38.790  0.00  0.00    -0.507 OA
ATOM     10  H   LIG    1       13.444  14.832  38.029  0.00  0.00    +0.292 HD
ENDBRANCH   4   9
BRANCH  13  14
ATOM     14  O   LIG    1        9.759  17.910  44.635  0.00  0.00    -0.380 OA
ATOM     15  H   LIG    1        8.934  17.532  44.987  0.00  0.00    +0.211 HD
ENDBRANCH  13  14
TORSDOF 6
ENDMDL
MODEL 3
REMARK VINA RESULT:      -7.0     26.976     28.693
REMARK  Name = 439533
REMARK                            x       y       z     vdW  Elec       q    Type
REMARK                         _______ _______ _______ _____ _____    ______ ____
ROOT
ATOM      1  O   LIG    1        2.956  32.134  63.886  0.00  0.00    -0.480 OA
ATOM      2  C   LIG    1        2.041  32.003  62.876  0.00  0.00    +0.139 A 
ATOM      3  C   LIG    1        2.158  32.896  61.809  0.00  0.00    +0.092 A 
ATOM      4  C   LIG    1        1.261  32.831  60.742  0.00  0.00    +0.124 A 
ATOM      5  C   LIG    1        0.253  31.867  60.735  0.00  0.00    +0.091 A 
ATOM      6  C   LIG    1        0.142  30.961  61.788  0.00  0.00    +0.134 A 
ATOM     11  C   LIG    1        1.044  31.026  62.854  0.00  0.00    +0.103 A 
ATOM     12  C   LIG    1        0.973  30.045  63.955  0.00  0.00    +0.202 C 
ATOM     13  C   LIG    1        2.108  30.101  64.954  0.00  0.00    +0.230 C 
ATOM     16  O   LIG    1        0.062  29.227  64.017  0.00  0.00    -0.289 OA
ATOM     17  C   LIG    1        2.533  31.559  65.133  0.00  0.00    +0.240 C 
ENDROOT
BRANCH  17  18
ATOM     18  C   LIG    1        3.689  31.693  66.105  0.00  0.00    -0.001 A 
ATOM     19  C   LIG    1        3.557  32.496  67.236  0.00  0.00    +0.011 A 
ATOM     20  C   LIG    1        4.621  32.619  68.130  0.00  0.00    +0.049 A 
ATOM     21  C   LIG    1        5.814  31.937  67.891  0.00  0.00    +0.158 A 
ATOM     22  C   LIG    1        5.945  31.134  66.758  0.00  0.00    +0.159 A 
ATOM     27  C   LIG    1        4.881  31.012  65.864  0.00  0.00    +0.056 A 
BRANCH  22  23
ATOM     23  O   LIG    1        7.105  30.465  66.515  0.00  0.00    -0.503 OA
ATOM     24  H   LIG    1        7.499  30.822  65.700  0.00  0.00    +0.292 HD
ENDBRANCH  22  23
BRANCH  21  25
ATOM     25  O   LIG    1        6.846  32.066  68.771  0.00  0.00    -0.503 OA
ATOM     26  H   LIG    1        6.525  32.513  69.573  0.00  0.00    +0.292 HD
ENDBRANCH  21  25
ENDBRANCH  17  18
BRANCH   6   7
ATOM      7  O   LIG    1       -0.850  30.029  61.720  0.00  0.00    -0.506 OA
ATOM      8  H   LIG    1       -0.631  29.255  62.260  0.00  0.00    +0.292 HD
ENDBRANCH   6   7
BRANCH   4   9
ATOM      9  O   LIG    1        1.370  33.709  59.708  0.00  0.00    -0.507 OA
ATOM     10  H   LIG    1        1.759  34.538  60.037  0.00  0.00    +0.292 HD
ENDBRANCH   4   9
BRANCH  13  14
ATOM     14  O   LIG    1        1.639  29.576  66.184  0.00  0.00    -0.380 OA
ATOM     15  H   LIG    1        0.713  29.308  66.055  0.00  0.00    +0.211 HD
ENDBRANCH  13  14
TORSDOF 6
ENDMDL
MODEL 4
REMARK VINA RESULT:      -7.0     26.572     29.070
REMARK  Name = 439533
REMARK                            x       y       z     vdW  Elec       q    Type
REMARK                         _______ _______ _______ _____ _____    ______ ____
ROOT
ATOM      1  O   LIG    1        2.185  32.114  63.970  0.00  0.00    -0.480 OA
ATOM      2  C   LIG    1        3.211  32.326  64.851  0.00  0.00    +0.139 A 
ATOM      3  C   LIG    1        3.845  33.568  64.782  0.00  0.00    +0.092 A 
ATOM      4  C   LIG    1        4.903  33.860  65.644  0.00  0.00    +0.124 A 
ATOM      5  C   LIG    1        5.324  32.916  66.580  0.00  0.00    +0.091 A 
ATOM      6  C   LIG    1        4.684  31.681  66.666  0.00  0.00    +0.134 A 
ATOM     11  C   LIG    1        3.622  31.392  65.805  0.00  0.00    +0.103 A 
ATOM     12  C   LIG    1        2.899  30.109  65.913  0.00  0.00    +0.202 C 
ATOM     13  C   LIG    1        1.658  29.983  65.056  0.00  0.00    +0.230 C 
ATOM     16  O   LIG    1        3.281  29.230  66.677  0.00  0.00    -0.289 OA
ATOM     17  C   LIG    1        1.893  30.726  63.740  0.00  0.00    +0.240 C 
ENDROOT
BRANCH  17  18
ATOM     18  C   LIG    1        0.677  30.667  62.836  0.00  0.00    -0.001 A 
ATOM     19  C   LIG    1        0.665  29.803  61.742  0.00  0.00    +0.011 A 
ATOM     20  C   LIG    1       -0.453  29.749  60.911  0.00  0.00    +0.049 A 
ATOM     21  C   LIG    1       -1.559  30.557  61.176  0.00  0.00    +0.158 A 
ATOM     22  C   LIG    1       -1.545  31.421  62.271  0.00  0.00    +0.159 A 
ATOM     27  C   LIG    1       -0.426  31.475  63.102  0.00  0.00    +0.056 A 
BRANCH  22  23
ATOM     23  O   LIG    1       -2.618  32.216  62.539  0.00  0.00    -0.503 OA
ATOM     24  H   LIG    1       -3.412  31.794  62.165  0.00  0.00    +0.292 HD
ENDBRANCH  22  23
BRANCH  21  25
ATOM     25  O   LIG    1       -2.645  30.496  60.356  0.00  0.00    -0.503 OA
ATOM     26  H   LIG    1       -2.935  31.401  60.146  0.00  0.00    +0.292 HD
ENDBRANCH  21  25
ENDBRANCH  17  18
BRANCH   6   7
ATOM      7  O   LIG    1        5.124  30.804  67.612  0.00  0.00    -0.506 OA
ATOM      8  H   LIG    1        4.526  30.793  68.374  0.00  0.00    +0.292 HD
ENDBRANCH   6   7
BRANCH   4   9
ATOM      9  O   LIG    1        5.527  35.068  65.568  0.00  0.00    -0.507 OA
ATOM     10  H   LIG    1        5.517  35.372  64.644  0.00  0.00    +0.292 HD
ENDBRANCH   4   9
BRANCH  13  14
ATOM     14  O   LIG    1        1.432  28.607  64.806  0.00  0.00    -0.380 OA
ATOM     15  H   LIG    1        2.300  28.168  64.774  0.00  0.00    +0.211 HD
ENDBRANCH  13  14
TORSDOF 6
ENDMDL
MODEL 5
REMARK VINA RESULT:      -6.9     26.835     28.738
REMARK  Name = 439533
REMARK                            x       y       z     vdW  Elec       q    Type
REMARK                         _______ _______ _______ _____ _____    ______ ____
ROOT
ATOM      1  O   LIG    1        1.432  30.126  64.467  0.00  0.00    -0.480 OA
ATOM      2  C   LIG    1        2.507  30.167  65.314  0.00  0.00    +0.139 A 
ATOM      3  C   LIG    1        2.493  29.269  66.383  0.00  0.00    +0.092 A 
ATOM      4  C   LIG    1        3.550  29.250  67.293  0.00  0.00    +0.124 A 
ATOM      5  C   LIG    1        4.627  30.123  67.133  0.00  0.00    +0.091 A 
ATOM      6  C   LIG    1        4.656  31.009  66.057  0.00  0.00    +0.134 A 
ATOM     11  C   LIG    1        3.598  31.023  65.145  0.00  0.00    +0.103 A 
ATOM     12  C   LIG    1        3.633  31.920  63.972  0.00  0.00    +0.202 C 
ATOM     13  C   LIG    1        2.524  31.718  62.962  0.00  0.00    +0.230 C 
ATOM     16  O   LIG    1        4.527  32.746  63.833  0.00  0.00    -0.289 OA
ATOM     17  C   LIG    1        1.246  31.330  63.705  0.00  0.00    +0.240 C 
ENDROOT
BRANCH  17  18
ATOM     18  C   LIG    1        0.093  31.084  62.751  0.00  0.00    -0.001 A 
ATOM     19  C   LIG    1        0.022  29.888  62.040  0.00  0.00    +0.011 A 
ATOM     20  C   LIG    1       -1.039  29.662  61.163  0.00  0.00    +0.049 A 
ATOM     21  C   LIG    1       -2.027  30.633  61.000  0.00  0.00    +0.158 A 
ATOM     22  C   LIG    1       -1.954  31.830  61.712  0.00  0.00    +0.159 A 
ATOM     27  C   LIG    1       -0.893  32.055  62.589  0.00  0.00    +0.056 A 
BRANCH  22  23
ATOM     23  O   LIG    1       -2.913  32.785  61.560  0.00  0.00    -0.503 OA
ATOM     24  H   LIG    1       -3.692  32.522  62.080  0.00  0.00    +0.292 HD
ENDBRANCH  22  23
BRANCH  21  25
ATOM     25  O   LIG    1       -3.057  30.402  60.139  0.00  0.00    -0.503 OA
ATOM     26  H   LIG    1       -2.767  29.768  59.460  0.00  0.00    +0.292 HD
ENDBRANCH  21  25
ENDBRANCH  17  18
BRANCH   6   7
ATOM      7  O   LIG    1        5.741  31.825  65.939  0.00  0.00    -0.506 OA
ATOM      8  H   LIG    1        6.330  31.724  66.701  0.00  0.00    +0.292 HD
ENDBRANCH   6   7
BRANCH   4   9
ATOM      9  O   LIG    1        3.530  28.381  68.341  0.00  0.00    -0.507 OA
ATOM     10  H   LIG    1        4.239  28.619  68.962  0.00  0.00    +0.292 HD
ENDBRANCH   4   9
BRANCH  13  14
ATOM     14  O   LIG    1        2.334  32.938  62.267  0.00  0.00    -0.380 OA
ATOM     15  H   LIG    1        1.522  32.851  61.738  0.00  0.00    +0.211 HD
ENDBRANCH  13  14
TORSDOF 6
ENDMDL
MODEL 6
REMARK VINA RESULT:      -6.9      1.741      6.860
REMARK  Name = 439533
REMARK                            x       y       z     vdW  Elec       q    Type
REMARK                         _______ _______ _______ _____ _____    ______ ____
ROOT
ATOM      1  O   LIG    1        9.213  15.633  41.268  0.00  0.00    -0.480 OA
ATOM      2  C   LIG    1       10.517  15.700  41.681  0.00  0.00    +0.139 A 
ATOM      3  C   LIG    1       11.489  15.388  40.729  0.00  0.00    +0.092 A 
ATOM      4  C   LIG    1       12.841  15.429  41.072  0.00  0.00    +0.124 A 
ATOM      5  C   LIG    1       13.224  15.791  42.364  0.00  0.00    +0.091 A 
ATOM      6  C   LIG    1       12.259  16.122  43.314  0.00  0.00    +0.134 A 
ATOM     11  C   LIG    1       10.906  16.084  42.966  0.00  0.00    +0.103 A 
ATOM     12  C   LIG    1        9.871  16.478  43.943  0.00  0.00    +0.202 C 
ATOM     13  C   LIG    1        8.461  16.572  43.400  0.00  0.00    +0.230 C 
ATOM     16  O   LIG    1       10.163  16.738  45.105  0.00  0.00    -0.289 OA
ATOM     17  C   LIG    1        8.270  15.486  42.341  0.00  0.00    +0.240 C 
ENDROOT
BRANCH  17  18
ATOM     18  C   LIG    1        6.883  15.534  41.730  0.00  0.00    -0.001 A 
ATOM     19  C   LIG    1        6.047  14.422  41.814  0.00  0.00    +0.011 A 
ATOM     20  C   LIG    1        4.771  14.467  41.252  0.00  0.00    +0.049 A 
ATOM     21  C   LIG    1        4.334  15.625  40.608  0.00  0.00    +0.158 A 
ATOM     22  C   LIG    1        5.172  16.737  40.525  0.00  0.00    +0.159 A 
ATOM     27  C   LIG    1        6.448  16.691  41.087  0.00  0.00    +0.056 A 
BRANCH  22  23
ATOM     23  O   LIG    1        4.755  17.871  39.898  0.00  0.00    -0.503 OA
ATOM     24  H   LIG    1        5.523  18.278  39.460  0.00  0.00    +0.292 HD
ENDBRANCH  22  23
BRANCH  21  25
ATOM     25  O   LIG    1        3.086  15.656  40.062  0.00  0.00    -0.503 OA
ATOM     26  H   LIG    1        3.087  15.136  39.239  0.00  0.00    +0.292 HD
ENDBRANCH  21  25
ENDBRANCH  17  18
BRANCH   6   7
ATOM      7  O   LIG    1       12.690  16.487  44.554  0.00  0.00    -0.506 OA
ATOM      8  H   LIG    1       13.331  15.846  44.896  0.00  0.00    +0.292 HD
ENDBRANCH   6   7
BRANCH   4   9
ATOM      9  O   LIG    1       13.787  15.113  40.146  0.00  0.00    -0.507 OA
ATOM     10  H   LIG    1       13.793  15.797  39.454  0.00  0.00    +0.292 HD
ENDBRANCH   4   9
BRANCH  13  14
ATOM     14  O   LIG    1        7.561  16.370  44.475  0.00  0.00    -0.380 OA
ATOM     15  H   LIG    1        7.711  15.472  44.820  0.00  0.00    +0.211 HD
ENDBRANCH  13  14
TORSDOF 6
ENDMDL
MODEL 7
REMARK VINA RESULT:      -6.8     27.029     28.463
REMARK  Name = 439533
REMARK                            x       y       z     vdW  Elec       q    Type
REMARK                         _______ _______ _______ _____ _____    ______ ____
ROOT
ATOM      1  O   LIG    1        1.727  30.588  64.513  0.00  0.00    -0.480 OA
ATOM      2  C   LIG    1        0.859  30.544  63.455  0.00  0.00    +0.139 A 
ATOM      3  C   LIG    1       -0.152  29.584  63.518  0.00  0.00    +0.092 A 
ATOM      4  C   LIG    1       -1.074  29.472  62.476  0.00  0.00    +0.124 A 
ATOM      5  C   LIG    1       -0.992  30.324  61.375  0.00  0.00    +0.091 A 
ATOM      6  C   LIG    1        0.004  31.297  61.314  0.00  0.00    +0.134 A 
ATOM     11  C   LIG    1        0.924  31.410  62.361  0.00  0.00    +0.103 A 
ATOM     12  C   LIG    1        1.957  32.465  62.338  0.00  0.00    +0.202 C 
ATOM     13  C   LIG    1        2.776  32.604  63.603  0.00  0.00    +0.230 C 
ATOM     16  O   LIG    1        2.102  33.188  61.360  0.00  0.00    -0.289 OA
ATOM     17  C   LIG    1        2.982  31.216  64.210  0.00  0.00    +0.240 C 
ENDROOT
BRANCH  17  18
ATOM     18  C   LIG    1        3.776  31.279  65.501  0.00  0.00    -0.001 A 
ATOM     19  C   LIG    1        3.171  31.742  66.668  0.00  0.00    +0.011 A 
ATOM     20  C   LIG    1        3.901  31.800  67.854  0.00  0.00    +0.049 A 
ATOM     21  C   LIG    1        5.236  31.393  67.872  0.00  0.00    +0.158 A 
ATOM     22  C   LIG    1        5.841  30.931  66.703  0.00  0.00    +0.159 A 
ATOM     27  C   LIG    1        5.109  30.874  65.516  0.00  0.00    +0.056 A 
BRANCH  22  23
ATOM     23  O   LIG    1        7.143  30.533  66.708  0.00  0.00    -0.503 OA
ATOM     24  H   LIG    1        7.502  30.649  65.811  0.00  0.00    +0.292 HD
ENDBRANCH  22  23
BRANCH  21  25
ATOM     25  O   LIG    1        5.939  31.456  69.036  0.00  0.00    -0.503 OA
ATOM     26  H   LIG    1        6.835  31.787  68.849  0.00  0.00    +0.292 HD
ENDBRANCH  21  25
ENDBRANCH  17  18
BRANCH   6   7
ATOM      7  O   LIG    1        0.025  32.114  60.225  0.00  0.00    -0.506 OA
ATOM      8  H   LIG    1       -0.852  32.165  59.817  0.00  0.00    +0.292 HD
ENDBRANCH   6   7
BRANCH   4   9
ATOM      9  O   LIG    1       -2.054  28.528  62.534  0.00  0.00    -0.507 OA
ATOM     10  H   LIG    1       -2.013  27.981  61.731  0.00  0.00    +0.292 HD
ENDBRANCH   4   9
BRANCH  13  14
ATOM     14  O   LIG    1        4.025  33.178  63.258  0.00  0.00    -0.380 OA
ATOM     15  H   LIG    1        3.858  33.865  62.590  0.00  0.00    +0.211 HD
ENDBRANCH  13  14
TORSDOF 6
ENDMDL
MODEL 8
REMARK VINA RESULT:      -6.8      1.844      3.946
REMARK  Name = 439533
REMARK                            x       y       z     vdW  Elec       q    Type
REMARK                         _______ _______ _______ _____ _____    ______ ____
ROOT
ATOM      1  O   LIG    1        8.641  15.864  43.463  0.00  0.00    -0.480 OA
ATOM      2  C   LIG    1        7.363  15.529  43.822  0.00  0.00    +0.139 A 
ATOM      3  C   LIG    1        7.073  15.552  45.187  0.00  0.00    +0.092 A 
ATOM      4  C   LIG    1        5.794  15.220  45.635  0.00  0.00    +0.124 A 
ATOM      5  C   LIG    1        4.801  14.873  44.719  0.00  0.00    +0.091 A 
ATOM      6  C   LIG    1        5.079  14.866  43.353  0.00  0.00    +0.134 A 
ATOM     11  C   LIG    1        6.359  15.203  42.907  0.00  0.00    +0.103 A 
ATOM     12  C   LIG    1        6.661  15.249  41.462  0.00  0.00    +0.202 C 
ATOM     13  C   LIG    1        8.021  15.800  41.095  0.00  0.00    +0.230 C 
ATOM     16  O   LIG    1        5.835  14.887  40.632  0.00  0.00    -0.289 OA
ATOM     17  C   LIG    1        9.027  15.379  42.167  0.00  0.00    +0.240 C 
ENDROOT
BRANCH  17  18
ATOM     18  C   LIG    1       10.415  15.920  41.880  0.00  0.00    -0.001 A 
ATOM     19  C   LIG    1       11.284  15.205  41.058  0.00  0.00    +0.011 A 
ATOM     20  C   LIG    1       12.560  15.703  40.795  0.00  0.00    +0.049 A 
ATOM     21  C   LIG    1       12.963  16.916  41.352  0.00  0.00    +0.158 A 
ATOM     22  C   LIG    1       12.092  17.631  42.174  0.00  0.00    +0.159 A 
ATOM     27  C   LIG    1       10.816  17.132  42.438  0.00  0.00    +0.056 A 
BRANCH  22  23
ATOM     23  O   LIG    1       12.476  18.816  42.725  0.00  0.00    -0.503 OA
ATOM     24  H   LIG    1       11.702  19.404  42.755  0.00  0.00    +0.292 HD
ENDBRANCH  22  23
BRANCH  21  25
ATOM     25  O   LIG    1       14.212  17.392  41.088  0.00  0.00    -0.503 OA
ATOM     26  H   LIG    1       14.223  18.354  41.235  0.00  0.00    +0.292 HD
ENDBRANCH  21  25
ENDBRANCH  17  18
BRANCH   6   7
ATOM      7  O   LIG    1        4.066  14.538  42.503  0.00  0.00    -0.506 OA
ATOM      8  H   LIG    1        4.271  13.720  42.024  0.00  0.00    +0.292 HD
ENDBRANCH   6   7
BRANCH   4   9
ATOM      9  O   LIG    1        5.515  15.232  46.967  0.00  0.00    -0.507 OA
ATOM     10  H   LIG    1        4.565  15.067  47.093  0.00  0.00    +0.292 HD
ENDBRANCH   4   9
BRANCH  13  14
ATOM     14  O   LIG    1        8.392  15.261  39.839  0.00  0.00    -0.380 OA
ATOM     15  H   LIG    1        7.907  14.425  39.724  0.00  0.00    +0.211 HD
ENDBRANCH  13  14
TORSDOF 6
ENDMDL
MODEL 9
REMARK VINA RESULT:      -6.7     19.553     22.077
REMARK  Name = 439533
REMARK                            x       y       z     vdW  Elec       q    Type
REMARK                         _______ _______ _______ _____ _____    ______ ____
ROOT
ATOM      1  O   LIG    1       -9.876  16.379  50.599  0.00  0.00    -0.480 OA
ATOM      2  C   LIG    1      -10.006  17.317  51.587  0.00  0.00    +0.139 A 
ATOM      3  C   LIG    1      -11.203  18.035  51.611  0.00  0.00    +0.092 A 
ATOM      4  C   LIG    1      -11.412  19.012  52.585  0.00  0.00    +0.124 A 
ATOM      5  C   LIG    1      -10.429  19.267  53.541  0.00  0.00    +0.091 A 
ATOM      6  C   LIG    1       -9.239  18.542  53.534  0.00  0.00    +0.134 A 
ATOM     11  C   LIG    1       -9.034  17.561  52.560  0.00  0.00    +0.103 A 
ATOM     12  C   LIG    1       -7.801  16.748  52.565  0.00  0.00    +0.202 C 
ATOM     13  C   LIG    1       -7.772  15.600  51.578  0.00  0.00    +0.230 C 
ATOM     16  O   LIG    1       -6.888  16.987  53.346  0.00  0.00    -0.289 OA
ATOM     17  C   LIG    1       -8.514  16.023  50.310  0.00  0.00    +0.240 C 
ENDROOT
BRANCH  17  18
ATOM     18  C   LIG    1       -8.549  14.909  49.281  0.00  0.00    -0.001 A 
ATOM     19  C   LIG    1       -9.408  13.826  49.458  0.00  0.00    +0.011 A 
ATOM     20  C   LIG    1       -9.440  12.802  48.512  0.00  0.00    +0.049 A 
ATOM     21  C   LIG    1       -8.614  12.865  47.389  0.00  0.00    +0.158 A 
ATOM     22  C   LIG    1       -7.754  13.949  47.214  0.00  0.00    +0.159 A 
ATOM     27  C   LIG    1       -7.723  14.973  48.162  0.00  0.00    +0.056 A 
BRANCH  22  23
ATOM     23  O   LIG    1       -6.943  14.020  46.123  0.00  0.00    -0.503 OA
ATOM     24  H   LIG    1       -6.870  14.952  45.856  0.00  0.00    +0.292 HD
ENDBRANCH  22  23
BRANCH  21  25
ATOM     25  O   LIG    1       -8.653  11.858  46.472  0.00  0.00    -0.503 OA
ATOM     26  H   LIG    1       -7.770  11.755  46.076  0.00  0.00    +0.292 HD
ENDBRANCH  21  25
ENDBRANCH  17  18
BRANCH   6   7
ATOM      7  O   LIG    1       -8.322  18.819  54.503  0.00  0.00    -0.506 OA
ATOM      8  H   LIG    1       -8.038  19.744  54.451  0.00  0.00    +0.292 HD
ENDBRANCH   6   7
BRANCH   4   9
ATOM      9  O   LIG    1      -12.575  19.719  52.601  0.00  0.00    -0.507 OA
ATOM     10  H   LIG    1      -13.290  19.157  52.255  0.00  0.00    +0.292 HD
ENDBRANCH   4   9
BRANCH  13  14
ATOM     14  O   LIG    1       -6.417  15.312  51.278  0.00  0.00    -0.380 OA
ATOM     15  H   LIG    1       -5.913  15.372  52.108  0.00  0.00    +0.211 HD
ENDBRANCH  13  14
TORSDOF 6
ENDMDL
