REMARK  Name = 159278
REMARK                            x       y       z     vdW  Elec       q    Type
REMARK                         _______ _______ _______ _____ _____    ______ ____
ROOT
ATOM      1  O   LIG    1       -8.002 119.373  97.167  0.00  0.00    -0.341 OA
ATOM      2  C   LIG    1       -8.801 120.279  96.408  0.00  0.00    +0.282 C 
ATOM      3  C   LIG    1       -9.821 119.515  95.565  0.00  0.00    +0.201 C 
ATOM      4  C   LIG    1      -10.657 118.567  96.425  0.00  0.00    +0.179 C 
ATOM      5  C   LIG    1       -9.769 117.724  97.341  0.00  0.00    +0.177 C 
ATOM     23  C   LIG    1       -8.773 118.607  98.094  0.00  0.00    +0.178 C 
ENDROOT
BRANCH   5   6
ATOM      6  O   LIG    1      -10.587 117.030  98.280  0.00  0.00    -0.386 OA
ATOM      7  H   LIG    1      -11.281 116.562  97.786  0.00  0.00    +0.210 HD
ENDBRANCH   5   6
BRANCH   4   8
ATOM      8  O   LIG    1      -11.389 117.678  95.580  0.00  0.00    -0.386 OA
ATOM      9  H   LIG    1      -11.621 118.169  94.773  0.00  0.00    +0.210 HD
ENDBRANCH   4   8
BRANCH   3  10
ATOM     10  O   LIG    1      -10.682 120.464  94.935  0.00  0.00    -0.384 OA
ATOM     11  H   LIG    1      -10.181 121.288  94.808  0.00  0.00    +0.210 HD
ENDBRANCH   3  10
BRANCH   2  12
ATOM     12  O   LIG    1       -7.971 121.028  95.522  0.00  0.00    -0.348 OA
BRANCH  12  13
ATOM     13  C   LIG    1       -7.791 120.350  94.288  0.00  0.00    +0.168 C 
BRANCH  13  14
ATOM     14  C   LIG    1       -8.268 121.233  93.140  0.00  0.00    +0.063 C 
BRANCH  14  15
ATOM     15  C   LIG    1       -8.894 120.434  92.024  0.00  0.00    -0.045 A 
ATOM     16  C   LIG    1       -8.097 119.980  90.984  0.00  0.00    +0.007 A 
ATOM     17  C   LIG    1       -8.675 119.241  89.952  0.00  0.00    +0.045 A 
ATOM     18  C   LIG    1      -10.042 118.967  89.972  0.00  0.00    +0.117 A 
ATOM     19  C   LIG    1      -10.832 119.431  91.025  0.00  0.00    +0.045 A 
ATOM     22  C   LIG    1      -10.253 120.169  92.057  0.00  0.00    +0.007 A 
BRANCH  18  20
ATOM     20  O   LIG    1      -10.607 118.246  88.965  0.00  0.00    -0.507 OA
ATOM     21  H   LIG    1      -10.108 117.420  88.850  0.00  0.00    +0.292 HD
ENDBRANCH  18  20
ENDBRANCH  14  15
ENDBRANCH  13  14
ENDBRANCH  12  13
ENDBRANCH   2  12
BRANCH  23  24
ATOM     24  C   LIG    1       -7.799 117.778  98.925  0.00  0.00    +0.190 C 
BRANCH  24  25
ATOM     25  O   LIG    1       -6.531 117.807  98.297  0.00  0.00    -0.392 OA
ATOM     26  H   LIG    1       -6.559 118.492  97.608  0.00  0.00    +0.210 HD
ENDBRANCH  24  25
ENDBRANCH  23  24
TORSDOF 10
