REMARK  Name = 159278
REMARK                            x       y       z     vdW  Elec       q    Type
REMARK                         _______ _______ _______ _____ _____    ______ ____
ROOT
ATOM      1  O   LIG    1       -8.550 120.628  91.547  0.00  0.00    -0.341 OA
ATOM      2  C   LIG    1       -9.206 120.405  92.794  0.00  0.00    +0.282 C 
ATOM      3  C   LIG    1      -10.716 120.295  92.592  0.00  0.00    +0.201 C 
ATOM      4  C   LIG    1      -11.062 119.236  91.544  0.00  0.00    +0.179 C 
ATOM      5  C   LIG    1      -10.221 119.415  90.279  0.00  0.00    +0.177 C 
ATOM     23  C   LIG    1       -8.738 119.551  90.628  0.00  0.00    +0.178 C 
ENDROOT
BRANCH   5   6
ATOM      6  O   LIG    1      -10.404 118.285  89.429  0.00  0.00    -0.386 OA
ATOM      7  H   LIG    1       -9.637 118.229  88.834  0.00  0.00    +0.210 HD
ENDBRANCH   5   6
BRANCH   4   8
ATOM      8  O   LIG    1      -12.438 119.358  91.180  0.00  0.00    -0.386 OA
ATOM      9  H   LIG    1      -12.525 119.048  90.263  0.00  0.00    +0.210 HD
ENDBRANCH   4   8
BRANCH   3  10
ATOM     10  O   LIG    1      -11.310 119.936  93.840  0.00  0.00    -0.384 OA
ATOM     11  H   LIG    1      -10.778 120.330  94.551  0.00  0.00    +0.210 HD
ENDBRANCH   3  10
BRANCH   2  12
ATOM     12  O   LIG    1       -8.959 121.502  93.671  0.00  0.00    -0.348 OA
BRANCH  12  13
ATOM     13  C   LIG    1       -7.568 121.683  93.893  0.00  0.00    +0.168 C 
BRANCH  13  14
ATOM     14  C   LIG    1       -6.858 120.336  93.842  0.00  0.00    +0.063 C 
BRANCH  14  15
ATOM     15  C   LIG    1       -6.659 119.740  95.215  0.00  0.00    -0.045 A 
ATOM     16  C   LIG    1       -5.374 119.612  95.719  0.00  0.00    +0.007 A 
ATOM     17  C   LIG    1       -5.189 119.062  96.988  0.00  0.00    +0.045 A 
ATOM     18  C   LIG    1       -6.291 118.647  97.735  0.00  0.00    +0.117 A 
ATOM     19  C   LIG    1       -7.578 118.782  97.214  0.00  0.00    +0.045 A 
ATOM     22  C   LIG    1       -7.763 119.332  95.945  0.00  0.00    +0.007 A 
BRANCH  18  20
ATOM     20  O   LIG    1       -6.112 118.110  98.973  0.00  0.00    -0.507 OA
ATOM     21  H   LIG    1       -5.550 117.320  98.895  0.00  0.00    +0.292 HD
ENDBRANCH  18  20
ENDBRANCH  14  15
ENDBRANCH  13  14
ENDBRANCH  12  13
ENDBRANCH   2  12
BRANCH  23  24
ATOM     24  C   LIG    1       -7.892 119.847  89.394  0.00  0.00    +0.190 C 
BRANCH  24  25
ATOM     25  O   LIG    1       -6.544 119.999  89.796  0.00  0.00    -0.392 OA
ATOM     26  H   LIG    1       -6.543 120.240  90.738  0.00  0.00    +0.210 HD
ENDBRANCH  24  25
ENDBRANCH  23  24
TORSDOF 10
