REMARK  Name = 159278
REMARK                            x       y       z     vdW  Elec       q    Type
REMARK                         _______ _______ _______ _____ _____    ______ ____
ROOT
ATOM      1  O   LIG    1       -5.378 120.949  96.263  0.00  0.00    -0.341 OA
ATOM      2  C   LIG    1       -6.508 120.193  96.694  0.00  0.00    +0.282 C 
ATOM      3  C   LIG    1       -6.066 118.839  97.247  0.00  0.00    +0.201 C 
ATOM      4  C   LIG    1       -5.011 119.001  98.341  0.00  0.00    +0.179 C 
ATOM      5  C   LIG    1       -3.895 119.948  97.897  0.00  0.00    +0.177 C 
ATOM     23  C   LIG    1       -4.476 121.245  97.331  0.00  0.00    +0.178 C 
ENDROOT
BRANCH   5   6
ATOM      6  O   LIG    1       -3.064 120.252  99.014  0.00  0.00    -0.386 OA
ATOM      7  H   LIG    1       -2.564 119.451  99.245  0.00  0.00    +0.210 HD
ENDBRANCH   5   6
BRANCH   4   8
ATOM      8  O   LIG    1       -4.425 117.731  98.629  0.00  0.00    -0.386 OA
ATOM      9  H   LIG    1       -3.481 117.881  98.812  0.00  0.00    +0.210 HD
ENDBRANCH   4   8
BRANCH   3  10
ATOM     10  O   LIG    1       -7.212 118.181  97.789  0.00  0.00    -0.384 OA
ATOM     11  H   LIG    1       -7.994 118.483  97.296  0.00  0.00    +0.210 HD
ENDBRANCH   3  10
BRANCH   2  12
ATOM     12  O   LIG    1       -7.378 119.954  95.589  0.00  0.00    -0.348 OA
BRANCH  12  13
ATOM     13  C   LIG    1       -6.735 120.237  94.355  0.00  0.00    +0.168 C 
BRANCH  13  14
ATOM     14  C   LIG    1       -7.587 121.201  93.538  0.00  0.00    +0.063 C 
BRANCH  14  15
ATOM     15  C   LIG    1       -8.316 120.509  92.411  0.00  0.00    -0.045 A 
ATOM     16  C   LIG    1       -9.680 120.292  92.518  0.00  0.00    +0.007 A 
ATOM     17  C   LIG    1      -10.354 119.653  91.477  0.00  0.00    +0.045 A 
ATOM     18  C   LIG    1       -9.655 119.240  90.344  0.00  0.00    +0.117 A 
ATOM     19  C   LIG    1       -8.281 119.466  90.251  0.00  0.00    +0.045 A 
ATOM     22  C   LIG    1       -7.608 120.105  91.292  0.00  0.00    +0.007 A 
BRANCH  18  20
ATOM     20  O   LIG    1      -10.312 118.617  89.327  0.00  0.00    -0.507 OA
ATOM     21  H   LIG    1       -9.678 118.069  88.833  0.00  0.00    +0.292 HD
ENDBRANCH  18  20
ENDBRANCH  14  15
ENDBRANCH  13  14
ENDBRANCH  12  13
ENDBRANCH   2  12
BRANCH  23  24
ATOM     24  C   LIG    1       -3.388 122.155  96.773  0.00  0.00    +0.190 C 
BRANCH  24  25
ATOM     25  O   LIG    1       -3.932 122.910  95.706  0.00  0.00    -0.392 OA
ATOM     26  H   LIG    1       -4.802 122.532  95.493  0.00  0.00    +0.210 HD
ENDBRANCH  24  25
ENDBRANCH  23  24
TORSDOF 10
