REMARK  Name = 159278
REMARK                            x       y       z     vdW  Elec       q    Type
REMARK                         _______ _______ _______ _____ _____    ______ ____
ROOT
ATOM      1  O   LIG    1       11.384  79.034 132.541  0.00  0.00    -0.341 OA
ATOM      2  C   LIG    1       12.714  79.486 132.295  0.00  0.00    +0.282 C 
ATOM      3  C   LIG    1       13.197  79.008 130.925  0.00  0.00    +0.201 C 
ATOM      4  C   LIG    1       12.221  79.411 129.819  0.00  0.00    +0.179 C 
ATOM      5  C   LIG    1       10.783  79.052 130.193  0.00  0.00    +0.177 C 
ATOM     23  C   LIG    1       10.445  79.554 131.598  0.00  0.00    +0.178 C 
ENDROOT
BRANCH   5   6
ATOM      6  O   LIG    1        9.890  79.644 129.254  0.00  0.00    -0.386 OA
ATOM      7  H   LIG    1       10.412  79.948 128.492  0.00  0.00    +0.210 HD
ENDBRANCH   5   6
BRANCH   4   8
ATOM      8  O   LIG    1       12.551  78.715 128.617  0.00  0.00    -0.386 OA
ATOM      9  H   LIG    1       13.512  78.564 128.622  0.00  0.00    +0.210 HD
ENDBRANCH   4   8
BRANCH   3  10
ATOM     10  O   LIG    1       14.471  79.598 130.669  0.00  0.00    -0.384 OA
ATOM     11  H   LIG    1       14.867  79.144 129.906  0.00  0.00    +0.210 HD
ENDBRANCH   3  10
BRANCH   2  12
ATOM     12  O   LIG    1       13.595  78.952 133.281  0.00  0.00    -0.348 OA
BRANCH  12  13
ATOM     13  C   LIG    1       14.668  79.842 133.551  0.00  0.00    +0.168 C 
BRANCH  13  14
ATOM     14  C   LIG    1       15.985  79.074 133.557  0.00  0.00    +0.063 C 
BRANCH  14  15
ATOM     15  C   LIG    1       15.818  77.652 134.033  0.00  0.00    -0.045 A 
ATOM     16  C   LIG    1       14.959  77.385 135.088  0.00  0.00    +0.007 A 
ATOM     17  C   LIG    1       14.803  76.071 135.528  0.00  0.00    +0.045 A 
ATOM     18  C   LIG    1       15.508  75.040 134.907  0.00  0.00    +0.117 A 
ATOM     19  C   LIG    1       16.370  75.324 133.847  0.00  0.00    +0.045 A 
ATOM     22  C   LIG    1       16.524  76.638 133.407  0.00  0.00    +0.007 A 
BRANCH  18  20
ATOM     20  O   LIG    1       15.357  73.757 135.336  0.00  0.00    -0.507 OA
ATOM     21  H   LIG    1       16.003  73.583 136.042  0.00  0.00    +0.292 HD
ENDBRANCH  18  20
ENDBRANCH  14  15
ENDBRANCH  13  14
ENDBRANCH  12  13
ENDBRANCH   2  12
BRANCH  23  24
ATOM     24  C   LIG    1        9.056  79.106 132.040  0.00  0.00    +0.190 C 
BRANCH  24  25
ATOM     25  O   LIG    1        9.166  77.840 132.663  0.00  0.00    -0.392 OA
ATOM     26  H   LIG    1       10.094  77.722 132.928  0.00  0.00    +0.210 HD
ENDBRANCH  24  25
ENDBRANCH  23  24
TORSDOF 10
