REMARK  Name = 159278
REMARK                            x       y       z     vdW  Elec       q    Type
REMARK                         _______ _______ _______ _____ _____    ______ ____
ROOT
ATOM      1  O   LIG    1       11.293  78.894 132.233  0.00  0.00    -0.341 OA
ATOM      2  C   LIG    1       11.709  79.212 133.560  0.00  0.00    +0.282 C 
ATOM      3  C   LIG    1       13.123  78.692 133.817  0.00  0.00    +0.201 C 
ATOM      4  C   LIG    1       14.102  79.192 132.755  0.00  0.00    +0.179 C 
ATOM      5  C   LIG    1       13.547  78.977 131.346  0.00  0.00    +0.177 C 
ATOM     23  C   LIG    1       12.116  79.507 131.239  0.00  0.00    +0.178 C 
ENDROOT
BRANCH   5   6
ATOM      6  O   LIG    1       14.373  79.659 130.406  0.00  0.00    -0.386 OA
ATOM      7  H   LIG    1       14.496  79.077 129.637  0.00  0.00    +0.210 HD
ENDBRANCH   5   6
BRANCH   4   8
ATOM      8  O   LIG    1       15.329  78.471 132.861  0.00  0.00    -0.386 OA
ATOM      9  H   LIG    1       15.544  78.129 131.976  0.00  0.00    +0.210 HD
ENDBRANCH   4   8
BRANCH   3  10
ATOM     10  O   LIG    1       13.542  79.153 135.102  0.00  0.00    -0.384 OA
ATOM     11  H   LIG    1       12.761  79.193 135.678  0.00  0.00    +0.210 HD
ENDBRANCH   3  10
BRANCH   2  12
ATOM     12  O   LIG    1       10.835  78.591 134.501  0.00  0.00    -0.348 OA
BRANCH  12  13
ATOM     13  C   LIG    1       10.723  77.196 134.259  0.00  0.00    +0.168 C 
BRANCH  13  14
ATOM     14  C   LIG    1        9.269  76.762 134.406  0.00  0.00    +0.063 C 
BRANCH  14  15
ATOM     15  C   LIG    1        8.397  77.295 133.295  0.00  0.00    -0.045 A 
ATOM     16  C   LIG    1        8.839  77.209 131.984  0.00  0.00    +0.007 A 
ATOM     17  C   LIG    1        8.034  77.701 130.957  0.00  0.00    +0.045 A 
ATOM     18  C   LIG    1        6.797  78.272 131.254  0.00  0.00    +0.117 A 
ATOM     19  C   LIG    1        6.365  78.351 132.579  0.00  0.00    +0.045 A 
ATOM     22  C   LIG    1        7.171  77.859 133.605  0.00  0.00    +0.007 A 
BRANCH  18  20
ATOM     20  O   LIG    1        6.010  78.752 130.253  0.00  0.00    -0.507 OA
ATOM     21  H   LIG    1        6.064  78.148 129.492  0.00  0.00    +0.292 HD
ENDBRANCH  18  20
ENDBRANCH  14  15
ENDBRANCH  13  14
ENDBRANCH  12  13
ENDBRANCH   2  12
BRANCH  23  24
ATOM     24  C   LIG    1       11.499  79.199 129.879  0.00  0.00    +0.190 C 
BRANCH  24  25
ATOM     25  O   LIG    1       12.469  78.547 129.081  0.00  0.00    -0.392 OA
ATOM     26  H   LIG    1       13.050  79.230 128.706  0.00  0.00    +0.210 HD
ENDBRANCH  24  25
ENDBRANCH  23  24
TORSDOF 10
