REMARK  Name = PCA
REMARK                            x       y       z     vdW  Elec       q    Type
REMARK                         _______ _______ _______ _____ _____    ______ ____
ROOT
ATOM      1  N   GLN A  1        5.959  16.408  65.203  0.00  0.00    -0.302 N 
ATOM      2  H   GLN A  1        5.057  16.239  65.648  0.00  0.00    +0.150 HD
ATOM      3  CD  GLN A  1        6.616  15.460  64.510  0.00  0.00    +0.214 C 
ATOM      4  OE1 GLN A  1        6.187  14.300  64.321  0.00  0.00    -0.276 OA
ATOM      5  CG  GLN A  1        7.914  16.024  63.921  0.00  0.00    +0.098 C 
ATOM      6  CB  GLN A  1        8.180  17.232  64.789  0.00  0.00    +0.043 C 
ATOM      7  CA  GLN A  1        6.762  17.631  65.178  0.00  0.00    +0.182 C 
ENDROOT
BRANCH   7   8
ATOM      8  C   GLN A  1        6.239  18.627  64.153  0.00  0.00    +0.325 C 
ATOM     11  O   GLN A  1        5.074  18.559  63.747  0.00  0.00    -0.249 OA
BRANCH   8   9
ATOM      9  OXT GLN A  1        7.094  19.560  63.744  0.00  0.00    -0.479 OA
ATOM     10  HXT GLN A  1        7.967  19.523  64.114  0.00  0.00    +0.295 HD
ENDBRANCH   8   9
ENDBRANCH   7   8
TORSDOF 2
