REMARK  Name = PCA
REMARK                            x       y       z     vdW  Elec       q    Type
REMARK                         _______ _______ _______ _____ _____    ______ ____
ROOT
ATOM      1  N   GLN A  1        8.498  17.818  64.255  0.00  0.00    -0.302 N 
ATOM      2  H   GLN A  1        9.286  18.255  63.775  0.00  0.00    +0.150 HD
ATOM      3  CD  GLN A  1        8.575  17.380  65.525  0.00  0.00    +0.214 C 
ATOM      4  OE1 GLN A  1        9.592  17.480  66.246  0.00  0.00    -0.276 OA
ATOM      5  CG  GLN A  1        7.225  16.818  65.984  0.00  0.00    +0.098 C 
ATOM      6  CB  GLN A  1        6.530  16.504  64.679  0.00  0.00    +0.043 C 
ATOM      7  CA  GLN A  1        7.148  17.550  63.759  0.00  0.00    +0.182 C 
ENDROOT
BRANCH   7   8
ATOM      8  C   GLN A  1        6.279  18.799  63.789  0.00  0.00    +0.325 C 
ATOM     11  O   GLN A  1        5.049  18.709  63.864  0.00  0.00    -0.249 OA
BRANCH   8   9
ATOM      9  OXT GLN A  1        6.918  19.965  63.744  0.00  0.00    -0.479 OA
ATOM     10  HXT GLN A  1        7.866  19.928  63.770  0.00  0.00    +0.295 HD
ENDBRANCH   8   9
ENDBRANCH   7   8
TORSDOF 2
