REMARK  Name = PCA
REMARK                            x       y       z     vdW  Elec       q    Type
REMARK                         _______ _______ _______ _____ _____    ______ ____
ROOT
ATOM      1  N   GLN A  1        6.203  16.526  65.396  0.00  0.00    -0.302 N 
ATOM      2  H   GLN A  1        5.332  16.345  65.896  0.00  0.00    +0.150 HD
ATOM      3  CD  GLN A  1        6.879  15.562  64.744  0.00  0.00    +0.214 C 
ATOM      4  OE1 GLN A  1        6.508  14.371  64.663  0.00  0.00    -0.276 OA
ATOM      5  CG  GLN A  1        8.115  16.146  64.051  0.00  0.00    +0.098 C 
ATOM      6  CB  GLN A  1        8.353  17.430  64.812  0.00  0.00    +0.043 C 
ATOM      7  CA  GLN A  1        6.934  17.784  65.239  0.00  0.00    +0.182 C 
ENDROOT
BRANCH   7   8
ATOM      8  C   GLN A  1        6.310  18.668  64.170  0.00  0.00    +0.325 C 
ATOM     11  O   GLN A  1        6.923  19.642  63.720  0.00  0.00    -0.249 OA
BRANCH   8   9
ATOM      9  OXT GLN A  1        5.095  18.323  63.751  0.00  0.00    -0.479 OA
ATOM     10  HXT GLN A  1        5.035  17.522  63.245  0.00  0.00    +0.295 HD
ENDBRANCH   8   9
ENDBRANCH   7   8
TORSDOF 2
